data_RESORA24.b3lyp.6-311G**.dma4.-110.6979.1.3939
_audit_creation_method 'generated by cspy2.0'
_cell_length_a 7.3659
_cell_length_b 12.709
_cell_length_c 5.6053
_cell_angle_alpha 90.0
_cell_angle_beta 90.0
_cell_angle_gamma 90.6203
loop_
_symmetry_equiv_pos_site_id
_symmetry_equiv_pos_as_xyz
1 +x,+y,+z
loop_
_atom_site_label
_atom_site_type_symbol
_atom_site_fract_x
_atom_site_fract_y
_atom_site_fract_z
_atom_site_occupancy
O1 O       0.624642150000       0.290727670000       0.245079650000       1.000000000000
O2 O       0.689525510000       0.641992690000       0.524659530000       1.000000000000
O3 O       0.372327110000       0.715652850000       0.745079650000       1.000000000000
O4 O       0.307443750000       0.364387830000       1.024659530000       1.000000000000
O5 O       0.094618450000       0.214709780000       0.207846850000       1.000000000000
O6 O       0.226199250000      -0.128518250000       0.490418200000       1.000000000000
O7 O       0.902350810000       0.791670740000       0.707846850000       1.000000000000
O8 O       0.770770010000       1.134898770000       0.990418200000       1.000000000000
H1 H       0.552459960000       0.319834450000       0.156130160000       1.000000000000
H2 H       0.767391790000       0.678344100000       0.590367790000       1.000000000000
H3 H       0.599156280000       0.494441030000       0.252598070000       1.000000000000
H4 H       0.802040290000       0.251262380000       0.619988090000       1.000000000000
H5 H       0.872095730000       0.547301380000       0.862715960000       1.000000000000
H6 H       0.916710850000       0.368037240000       0.899399460000       1.000000000000
H7 H       0.444509300000       0.686546070000       0.656130160000       1.000000000000
H8 H       0.229577470000       0.328036420000       1.090367790000       1.000000000000
H9 H       0.397812980000       0.511939490000       0.752598070000       1.000000000000
H10 H       0.194928970000       0.755118140000       1.119988090000       1.000000000000
H11 H       0.124873530000       0.459079140000       1.362715960000       1.000000000000
H12 H       0.080258400000       0.638343290000       1.399399460000       1.000000000000
H13 H       0.030791520000       0.180023450000       0.116616400000       1.000000000000
H14 H       0.309636960000      -0.158246450000       0.558776950000       1.000000000000
H15 H       0.111327430000       0.010634390000       0.215062400000       1.000000000000
H16 H       0.255122210000       0.268013870000       0.588396760000       1.000000000000
H17 H       0.381117440000      -0.019999610000       0.834151820000       1.000000000000
H18 H       0.387577950000       0.161359320000       0.871821720000       1.000000000000
H19 H       0.966177740000       0.826357080000       0.616616400000       1.000000000000
H20 H       0.687332290000       1.164626970000       1.058776950000       1.000000000000
H21 H       0.885641830000       0.995746130000       0.715062400000       1.000000000000
H22 H       0.741847050000       0.738366650000       1.088396760000       1.000000000000
H23 H       0.615851820000       1.026380130000       1.334151820000       1.000000000000
H24 H       0.609391310000       0.845021200000       1.371821720000       1.000000000000
C1 C       0.729457650000       0.537350460000       0.555168830000       1.000000000000
C2 C       0.689303810000       0.361938550000       0.409865620000       1.000000000000
C3 C       0.662082220000       0.468854190000       0.383789540000       1.000000000000
C4 C       0.784072410000       0.323177300000       0.602701590000       1.000000000000
C5 C       0.825831780000       0.500947800000       0.749036370000       1.000000000000
C6 C       0.851877310000       0.393563520000       0.769696080000       1.000000000000
C7 C       0.267511610000       0.469030060000       1.055168830000       1.000000000000
C8 C       0.307665450000       0.644441980000       0.909865620000       1.000000000000
C9 C       0.334887040000       0.537526340000       0.883789540000       1.000000000000
C10 C       0.212896850000       0.683203220000       1.102701590000       1.000000000000
C11 C       0.171137480000       0.505432730000       1.249036370000       1.000000000000
C12 C       0.145091950000       0.612817000000       1.269696080000       1.000000000000
C13 C       0.243562850000      -0.021524510000       0.521959630000       1.000000000000
C14 C       0.170279360000       0.149244470000       0.374908020000       1.000000000000
C15 C       0.165899410000       0.041033250000       0.348224720000       1.000000000000
C16 C       0.252510490000       0.195255290000       0.570713060000       1.000000000000
C17 C       0.327853220000       0.022278270000       0.718855270000       1.000000000000
C18 C       0.331074200000       0.130862920000       0.740083780000       1.000000000000
C19 C       0.753406410000       1.027905040000       1.021959630000       1.000000000000
C20 C       0.826689900000       0.857136050000       0.874908020000       1.000000000000
C21 C       0.831069850000       0.965347280000       0.848224720000       1.000000000000
C22 C       0.744458770000       0.811125240000       1.070713060000       1.000000000000
C23 C       0.669116040000       0.984102250000       1.218855270000       1.000000000000
C24 C       0.665895060000       0.875517600000       1.240083780000       1.000000000000
#END