data_cif

_audit_creation_method             'generated by GULP'

_symmetry_space_group_name_H-M     'P N A 21        '
_symmetry_Int_Tables_number        33
_symmetry_cell_setting             Orthorhombic

_cell_length_a                       8.979669
_cell_length_b                      12.545403
_cell_length_c                       4.793862
_cell_angle_alpha                   90.000000
_cell_angle_beta                    90.000000
_cell_angle_gamma                   90.000000

loop_
_atom_site_label
_atom_site_fract_x
_atom_site_fract_y
_atom_site_fract_z
_atom_site_occupancy
  O4          0.62371      0.29304      0.25180  1.0000
  H2          0.53476      0.32780      0.17347  1.0000
  O4          0.66630      0.64866      0.58412  1.0000
  H2          0.74568      0.69462      0.66036  1.0000
  C1          0.71611      0.54660      0.58591  1.0000
  C1          0.69367      0.36569      0.41612  1.0000
  C1          0.64953      0.47235      0.40877  1.0000
  H3          0.56281      0.49842      0.26802  1.0000
  C1          0.80771      0.33356      0.59653  1.0000
  H3          0.84253      0.25075      0.60201  1.0000
  C1          0.82892      0.51505      0.76967  1.0000
  H3          0.87945      0.57234      0.91070  1.0000
  C1          0.87559      0.40818      0.77441  1.0000
  H3          0.96267      0.38302      0.91749  1.0000
