data_image0
_chemical_formula_structural       O4H4O4H4C12H4C4H4C4H4C4H4
_chemical_formula_sum              "O8 H24 C24"
_cell_length_a       7.944899959064433
_cell_length_b       12.144424388995343
_cell_length_c       6.131776558329969
_cell_angle_alpha    89.97021082908736
_cell_angle_beta     90.02088755380873
_cell_angle_gamma    89.94124942891085

_space_group_name_H-M_alt    "P 1"
_space_group_IT_number       1

loop_
  _space_group_symop_operation_xyz
  'x, y, z'

loop_
  _atom_site_type_symbol
  _atom_site_label
  _atom_site_symmetry_multiplicity
  _atom_site_fract_x
  _atom_site_fract_y
  _atom_site_fract_z
  _atom_site_occupancy
  O   O1        1.0  0.6480370464115706  0.2991453754596778  0.26178771234614456  1.0000
  O   O2        1.0  0.35192937982004335  0.7009657030933507  0.7613956668917816  1.0000
  O   O3        1.0  0.14813629595866612  0.20083393445764222  0.2603672948187128  1.0000
  O   O4        1.0  0.8519297931550461  0.799110195445741  0.7613079057507413  1.0000
  H   H1        1.0  0.5425643504232732  0.3242387611120078  0.18357934251257213  1.0000
  H   H2        1.0  0.45745658947485074  0.6758502335979739  0.6833898461532947  1.0000
  H   H3        1.0  0.04259086921004703  0.17590551087609002  0.1822972584204918  1.0000
  H   H4        1.0  0.9571808055374329  0.8242761267000006  0.6830141828110039  1.0000
  O   O5        1.0  0.6440137502296515  0.6579198443218104  0.5808674600676729  1.0000
  O   O6        1.0  0.35595696196416254  0.34223013736444863  0.0808962358951147  1.0000
  O   O7        1.0  0.14396461906904548  0.842104420201931  0.5801465741452173  1.0000
  O   O8        1.0  0.8556571078419746  0.15773469901233  0.08077002324411954  1.0000
  H   H5        1.0  0.7244295364434469  0.7102166645760314  0.6568196655235758  1.0000
  H   H6        1.0  0.2755940736155115  0.2898393304723014  0.15666300965704635  1.0000
  H   H7        1.0  0.2243894842565825  0.7898154435714942  0.6565162684744136  1.0000
  H   H8        1.0  0.7754336611647166  0.2100309120139054  0.157194062065757  1.0000
  C   C1        1.0  0.7095250221431736  0.553148466537562  0.5759866919203239  1.0000
  C   C2        1.0  0.29045593511527684  0.44703898956782384  0.07606678921944685  1.0000
  C   C3        1.0  0.20933102205803722  0.9468335434910835  0.5753048855467792  1.0000
  C   C4        1.0  0.7903787602084028  0.05297539160324442  0.07591650609319915  1.0000
  C   C5        1.0  0.7050548883544174  0.3730395195971168  0.41284063415645156  1.0000
  C   C6        1.0  0.2949816837635823  0.6271171641478737  0.9126937014831437  1.0000
  C   C7        1.0  0.20497865716863212  0.12688382660231007  0.41173211817775623  1.0000
  C   C8        1.0  0.7949271482804128  0.8729465922716733  0.9126181676248777  1.0000
  C   C9        1.0  0.642198581204911  0.48027047906740067  0.4230948174715905  1.0000
  C   C10       1.0  0.3577527076210135  0.5198941378419116  0.9230783625733234  1.0000
  C   C11       1.0  0.1421425799679006  0.019754568291039307  0.42209628554303585  1.0000
  C   C12       1.0  0.8576991306191991  0.9801034952377977  0.9229595000175419  1.0000
  H   H9        1.0  0.5441353123147136  0.5089371503417169  0.31106475597822175  1.0000
  H   H10       1.0  0.4557835072926104  0.4912471238755891  0.8110848388321982  1.0000
  H   H11       1.0  0.04420509431397179  0.9912768100245968  0.30987107327865226  1.0000
  H   H12       1.0  0.9555788471447194  0.00873839280580202  0.8108015865118069  1.0000
  C   C13       1.0  0.83060104823164  0.3381076170640376  0.5566868968450799  1.0000
  C   C14       1.0  0.16967815336969475  0.6621082467433997  0.05663549597266674  1.0000
  C   C15       1.0  0.33035776621497587  0.16169393937110585  0.5557028636112455  1.0000
  C   C16       1.0  0.669675058736766  0.8380162878904993  0.056590889789742034  1.0000
  H   H13       1.0  0.8766203799058473  0.2533103171586234  0.5497608977698724  1.0000
  H   H14       1.0  0.12390938889925361  0.7469582004336411  0.049721709837811975  1.0000
  H   H15       1.0  0.37633326805034295  0.2464315045496426  0.5485194622651111  1.0000
  H   H16       1.0  0.6238815225265527  0.7532351880771688  0.04969929839678508  1.0000
  C   C17       1.0  0.8364677099234673  0.5202137490418318  0.7190162458975823  1.0000
  C   C18       1.0  0.16361518995010316  0.47995562472990694  0.2190601894993235  1.0000
  C   C19       1.0  0.3362015123210686  0.9795968137723856  0.7183710193096554  1.0000
  C   C20       1.0  0.6635500819056854  0.020147924134010994  0.2189013865421233  1.0000
  H   H17       1.0  0.8882416295103498  0.5778752710598596  0.8386027432079388  1.0000
  H   H18       1.0  0.11198697296413493  0.42229262848452426  0.3388135062053434  1.0000
  H   H19       1.0  0.3878481647116513  0.9218605683978802  0.8381497047397892  1.0000
  H   H20       1.0  0.6117571714057498  0.07784761479317369  0.338462255085265  1.0000
  C   C21       1.0  0.8950418156519241  0.41217449184561517  0.7080511555169509  1.0000
  C   C22       1.0  0.10527786739988874  0.5880498781346358  0.20811288423364951  1.0000
  C   C23       1.0  0.39475718860427234  0.0875626397424889  0.7072553975656084  1.0000
  C   C24       1.0  0.6052017826179441  0.9121320197124592  0.20797244857963124  1.0000
  H   H21       1.0  0.9934786582851824  0.38560741692992245  0.8211840294473206  1.0000
  H   H22       1.0  0.007133611384539917  0.6147355353447144  0.32139935201944536  1.0000
  H   H23       1.0  0.49309531526434314  0.1140623951647804  0.8204403919698555  1.0000
  H   H24       1.0  0.5068858890594353  0.8855995043830839  0.3210910717980218  1.0000
