data_image0
_chemical_formula_structural       O4H4O4H4C12H4C4H4C4H4C4H4
_chemical_formula_sum              "O8 H24 C24"
_cell_length_a       7.9269
_cell_length_b       12.6126
_cell_length_c       5.5206
_cell_angle_alpha    90.0
_cell_angle_beta     90.0
_cell_angle_gamma    90.0

_space_group_name_H-M_alt    "P 1"
_space_group_IT_number       1

loop_
  _space_group_symop_operation_xyz
  'x, y, z'

loop_
  _atom_site_type_symbol
  _atom_site_label
  _atom_site_symmetry_multiplicity
  _atom_site_fract_x
  _atom_site_fract_y
  _atom_site_fract_z
  _atom_site_occupancy
  O   O1        1.0  0.6263448918228405  0.29189558270124066  0.24509770769549277  1.0000
  O   O2        1.0  0.3736551307181577  0.7081046844074339  0.7450974183260614  1.0000
  O   O3        1.0  0.12695084743204751  0.20801304718944574  0.2457492003972066  1.0000
  O   O4        1.0  0.8730491054966765  0.7919866905804507  0.745748956012392  1.0000
  H   H1        1.0  0.5276393742678452  0.32108382311686484  0.1546326517454413  1.0000
  H   H2        1.0  0.47236051012408636  0.6789159570981727  0.6546330023003993  1.0000
  H   H3        1.0  0.028465667573702842  0.17893859358983552  0.15477495194126217  1.0000
  H   H4        1.0  0.9715342871564504  0.8210615948799131  0.6547751900576704  1.0000
  O   O5        1.0  0.6701217802542974  0.6480232364460333  0.5381718330293849  1.0000
  O   O6        1.0  0.32987792800975047  0.35197692135467945  0.03817207632696577  1.0000
  O   O7        1.0  0.16979244091806645  0.8516328798706748  0.5374740930506774  1.0000
  O   O8        1.0  0.8302073965556925  0.1483670581362779  0.037474345211480284  1.0000
  H   H5        1.0  0.7501323078589401  0.6968639938304405  0.6231629744762704  1.0000
  H   H6        1.0  0.24986780381423682  0.3031357806866084  0.12316299083306047  1.0000
  H   H7        1.0  0.25002126510321976  0.8027679717388102  0.6219936024635713  1.0000
  H   H8        1.0  0.749978834338149  0.1972322109523306  0.12199358722486864  1.0000
  C   C1        1.0  0.7209801320287791  0.5433965622725211  0.5567827529732602  1.0000
  C   C2        1.0  0.27901977788765747  0.45660370042795595  0.05678308465880017  1.0000
  C   C3        1.0  0.22057963518630677  0.9562214718266835  0.5568047286095332  1.0000
  C   C4        1.0  0.7794203825040156  0.0437782713986777  0.056804675432538754  1.0000
  C   C5        1.0  0.6918551776857942  0.36482601105078527  0.405789147042594  1.0000
  C   C6        1.0  0.30814482559020495  0.6351741651862907  0.9057884516376336  1.0000
  C   C7        1.0  0.1919275421023272  0.1349519812803434  0.4065938724147163  1.0000
  C   C8        1.0  0.8080724703333654  0.8650478712304408  0.9065934868633289  1.0000
  C   C9        1.0  0.6521150200283077  0.47256749017748273  0.38894197049941004  1.0000
  C   C10       1.0  0.34788533526244325  0.5274326019291694  0.8889417418893959  1.0000
  C   C11       1.0  0.15218672566658972  0.027233082049043403  0.3889511372924894  1.0000
  C   C12       1.0  0.8478135157966868  0.9727668586273861  0.8889510543269062  1.0000
  H   H9        1.0  0.56940435801938  0.5025913536551087  0.24704491029089062  1.0000
  H   H10       1.0  0.43059586871086014  0.4974085488703532  0.7470445003021257  1.0000
  H   H11       1.0  0.06989614949628516  0.9974064234796212  0.2463362014072872  1.0000
  H   H12       1.0  0.9301041148892333  0.0025936486932498504  0.7463357056879257  1.0000
  C   C13       1.0  0.8009354516887469  0.32786333201462586  0.5862803957477678  1.0000
  C   C14       1.0  0.19906466527637745  0.67213671074624  0.08628042466748785  1.0000
  C   C15       1.0  0.30050289708108574  0.17175323852900704  0.5878442006497073  1.0000
  C   C16       1.0  0.6994972525478539  0.8282468067196631  0.08784415361927934  1.0000
  H   H13       1.0  0.8289811785648677  0.24361032824209922  0.6012141218260406  1.0000
  H   H14       1.0  0.1710188299811858  0.7563896468733855  0.1012140637573262  1.0000
  H   H15       1.0  0.3285526719714895  0.2559868304395212  0.6032369033893008  1.0000
  H   H16       1.0  0.6714473021526466  0.7440131904002714  0.10323687510395961  1.0000
  C   C17       1.0  0.8316792180694316  0.5085585544582676  0.7373379074945275  1.0000
  C   C18       1.0  0.16832050033285076  0.49144145314010823  0.23733801122580256  1.0000
  C   C19       1.0  0.3307390146215792  0.9909208167774526  0.7382033564299263  1.0000
  C   C20       1.0  0.6692607594013599  0.009079282970628613  0.2382035513841338  1.0000
  H   H17       1.0  0.8853483743155223  0.5640286077114537  0.8677214498941618  1.0000
  H   H18       1.0  0.11465142401743919  0.43597113341053056  0.36772202087004574  1.0000
  H   H19       1.0  0.3839639286863789  0.935320534249503  0.8686682236863382  1.0000
  H   H20       1.0  0.6160359647764374  0.06467960887577719  0.3686686089820924  1.0000
  C   C21       1.0  0.8701985105906884  0.4005248624992612  0.7486452793654429  1.0000
  C   C22       1.0  0.12980170316751488  0.5994751165865285  0.2486451804460711  1.0000
  C   C23       1.0  0.3692639060013118  0.09893481362616828  0.750300236919658  1.0000
  C   C24       1.0  0.6307360216870813  0.9010651183421482  0.25030052989544843  1.0000
  H   H21       1.0  0.9546843709456263  0.3725429448452637  0.8905665075265551  1.0000
  H   H22       1.0  0.04531561239176681  0.6274569482452297  0.3905663462582152  1.0000
  H   H23       1.0  0.4533457393587365  0.12675470454182852  0.8928897895493508  1.0000
  H   H24       1.0  0.5466542146473756  0.8732453725783842  0.39288976783867796  1.0000
