# CIF file generated from CASTEP cell file
# https://gist.github.com/blake-armstrong/93facdde07a6e0a1ddb51857dd48e3f1
# Structure converted from CASTEP

data_structure

_cell_length_a    7.930593117874077
_cell_length_b    12.504684768382777
_cell_length_c    5.446447650508983
_cell_angle_alpha 90.015914741374033
_cell_angle_beta  89.967794743587973
_cell_angle_gamma 90.010514992841166

_symmetry_space_group_name_H-M 'P 1'
_symmetry_Int_Tables_number 1

loop_
_atom_site_label
_atom_site_type_symbol
_atom_site_fract_x
_atom_site_fract_y
_atom_site_fract_z
H1       H     0.523180674191597    0.319980757880861    0.155880642523245
H2       H     0.749263527074366    0.698415765295872    0.622216921937328
H3       H     0.563913534890436    0.502569638444537    0.247128533608055
H4       H     0.828319805354236    0.242861162215664    0.602113183180254
H5       H     0.885850811499269    0.566192149993475    0.868021057762493
H6       H     0.956274278155263    0.373476674890359    0.891343688210553
H7       H     0.473197957887478    0.679849515623438    0.654680560022001
H8       H     0.247344328210122    0.301723596980048    0.122950222024554
H9       H     0.432758697746669    0.497186066521736    0.746918644840794
H10      H     0.167588991896377    0.757155158718104    0.100433611782315
H11      H     0.110738378117776    0.434163435172522    0.368484119733987
H12      H     0.039857994844559    0.626842871471485    0.390654050946974
H13      H     0.973244448233863    0.819876385262365    0.655403347408780
H14      H     0.747403924609475    0.198392658772273    0.122164202691088
H15      H     0.932984049502138    0.002536135706369    0.747148464083133
H16      H     0.667675561483749    0.742910288514712    0.101664819532781
H17      H     0.610673659541059    0.066203761613198    0.368067404836690
H18      H     0.539770923741905    0.873544412456783    0.391112681986847
H19      H     0.023168037691648    0.180191569843802    0.156302321222296
H20      H     0.248994465444015    0.801494364881430    0.621075060248446
H21      H     0.063654031193456    0.997569335831902    0.246994547894068
H22      H     0.328239105511182    0.257079587171411    0.602980251241603
H23      H     0.385540428339658    0.933615342877723    0.867620118342544
H24      H     0.456120525938491    0.126306723198128    0.891703020340844
C1       C     0.718714856346998    0.544503670868842    0.556831380081740
C2       C     0.688716457974984    0.364344704075538    0.406418050836383
C3       C     0.648119134317390    0.472789624792486    0.389147759846188
C4       C     0.799855064243036    0.327605505645370    0.586899748660580
C5       C     0.831237081898013    0.509996712913155    0.737803678130081
C6       C     0.870359349424563    0.401207231675580    0.749412065139597
C7       C     0.277916601731402    0.455555421075273    0.056996886940940
C8       C     0.307551123757080    0.635522623438766    0.905426690399963
C9       C     0.348442870659007    0.527092599960928    0.888832824942310
C10      C     0.196260778469128    0.672415191278743    0.085768993473353
C11      C     0.165265048242189    0.490221580229979    0.237862241142037
C12      C     0.125886579778456    0.598987584537176    0.248827601485608
C13      C     0.777972800043043    0.044504723073458    0.056828287343746
C14      C     0.807750311892548    0.864342438908476    0.906242443011158
C15      C     0.848580791354449    0.972774684657949    0.889088877611312
C16      C     0.696332497360504    0.827641971044636    0.086602669621754
C17      C     0.665246720290520    0.010009020635980    0.237754928532657
C18      C     0.625859774541451    0.901245300961885    0.249214048277502
C19      C     0.218455751159568    0.955448940938977    0.556477118399505
C20      C     0.188530714448453    0.135705500381398    0.406870420111880
C21      C     0.147890875407169    0.027265325609665    0.389115254575672
C22      C     0.299727392189493    0.172342450652764    0.587450878263796
C23      C     0.330981773636246    0.989873259644617    0.737601441609561
C24      C     0.370186580867558    0.098655587047614    0.749657322240727
O1       O     0.621893925129538    0.290552381686171    0.246165418053685
O2       O     0.668035652110939    0.649795749761830    0.537973268229477
O3       O     0.374152007628478    0.709156904286110    0.744597703371256
O4       O     0.328719696752579    0.350249106411297    0.038689784499427
O5       O     0.874600147291201    0.790469857546875    0.746088960278461
O6       O     0.828817268403552    0.149804015046483    0.038159723385058
O7       O     0.121684730019313    0.209631698213526    0.247090518471682
O8       O     0.167715981532340    0.850151273660270    0.537201536631298
