data_C6H6O2
_audit_creation_method 'chmpy python library version 1.0a1'
_cell_length_a 9.111645
_cell_length_b 13.039438
_cell_length_c 4.100646
_cell_angle_alpha 90.0
_cell_angle_beta 90.0
_cell_angle_gamma 90.0
loop_
_symmetry_equiv_pos_site_id
_symmetry_equiv_pos_as_xyz
                   1 +x,+y,+z
                   2 -x,-y,1/2+z
                   3 1/2+x,1/2-y,+z
                   4 1/2-x,1/2+y,1/2+z
loop_
_atom_site_label
_atom_site_type_symbol
_atom_site_fract_x
_atom_site_fract_y
_atom_site_fract_z
_atom_site_occupancy
O O       0.586823000000       0.263881000000       0.251800000000       1.000000000000
H H       0.497482000000       0.298965000000       0.155152000000       1.000000000000
O O       0.682458000000       0.621368000000       0.517956000000       1.000000000000
H H       0.763844000000       0.666634000000       0.606451000000       1.000000000000
C C       0.722323000000       0.518419000000       0.543824000000       1.000000000000
C C       0.672842000000       0.337493000000       0.408541000000       1.000000000000
C C       0.636162000000       0.442550000000       0.390111000000       1.000000000000
H H       0.539731000000       0.465987000000       0.252132000000       1.000000000000
C C       0.799754000000       0.308984000000       0.587384000000       1.000000000000
H H       0.828569000000       0.227820000000       0.602702000000       1.000000000000
C C       0.847970000000       0.487047000000       0.722550000000       1.000000000000
H H       0.913367000000       0.545301000000       0.846942000000       1.000000000000
C C       0.885791000000       0.383241000000       0.742485000000       1.000000000000
H H       0.982798000000       0.359719000000       0.880676000000       1.000000000000
#END