data_C18H20O2
_audit_creation_method 'chmpy python library version 1.0a1'
_cell_length_a 15.788104
_cell_length_b 15.788104
_cell_length_c 15.788104
_cell_angle_alpha 115.26074000000001
_cell_angle_beta 115.26074000000001
_cell_angle_gamma 115.26074000000001
loop_
_symmetry_equiv_pos_site_id
_symmetry_equiv_pos_as_xyz
                   1 -x,-y,-z
                   2 -x+y,-x,+z
                   3 -y,+x-y,+z
                   4 +y,-x+y,-z
                   5 +x-y,+x,-z
                   6 +x,+y,+z
                   7 1/3-x,2/3-y,2/3-z
                   8 1/3-x+y,2/3-x,2/3+z
                   9 1/3-y,2/3+x-y,2/3+z
                  10 1/3+y,2/3-x+y,2/3-z
                  11 1/3+x-y,2/3+x,2/3-z
                  12 1/3+x,2/3+y,2/3+z
                  13 2/3-x,1/3-y,1/3-z
                  14 2/3-x+y,1/3-x,1/3+z
                  15 2/3-y,1/3+x-y,1/3+z
                  16 2/3+y,1/3-x+y,1/3-z
                  17 2/3+x-y,1/3+x,1/3-z
                  18 2/3+x,1/3+y,1/3+z
loop_
_atom_site_label
_atom_site_type_symbol
_atom_site_fract_x
_atom_site_fract_y
_atom_site_fract_z
_atom_site_occupancy
O O       0.081210000000       0.257357000000       0.343468000000       1.000000000000
C C       0.104506000000       0.219581000000       0.382136000000       1.000000000000
C C       0.162742000000       0.255916000000       0.457629000000       1.000000000000
H H       0.195332000000       0.287275000000       0.390015000000       1.000000000000
H H       0.179744000000       0.227279000000       0.487104000000       1.000000000000
C C       0.159746000000       0.290620000000       0.577079000000       1.000000000000
C C       0.117554000000       0.356205000000       0.628734000000       1.000000000000
H H       0.144425000000       0.369389000000       0.714704000000       1.000000000000
C C       0.081799000000       0.379700000000       0.603944000000       1.000000000000
H H       0.081284000000       0.411060000000       0.670457000000       1.000000000000
C C       0.046949000000       0.362837000000       0.494230000000       1.000000000000
H H       0.018739000000       0.380797000000       0.474950000000       1.000000000000
C C       0.048121000000       0.322754000000       0.410170000000       1.000000000000
H H       0.022813000000       0.310865000000       0.322044000000       1.000000000000
C C       0.083390000000       0.297805000000       0.434277000000       1.000000000000
C C       0.119276000000       0.315435000000       0.545986000000       1.000000000000
C C       0.137886000000       0.250042000000       0.696078000000       1.000000000000
C C       0.168919000000       0.223545000000       0.742097000000       1.000000000000
H H       0.209282000000       0.232775000000       0.695383000000       1.000000000000
C C       0.148031000000       0.184397000000       0.843808000000       1.000000000000
H H       0.172612000000       0.164469000000       0.878248000000       1.000000000000
C C       0.094863000000       0.170014000000       0.904180000000       1.000000000000
C C       0.064498000000       0.197709000000       0.860607000000       1.000000000000
H H       0.023633000000       0.187110000000       0.906607000000       1.000000000000
C C       0.085518000000       0.236498000000       0.758434000000       1.000000000000
H H       0.060209000000       0.255585000000       0.723452000000       1.000000000000
C C       0.222329000000       0.341977000000       0.603152000000       1.000000000000
H H       0.253903000000       0.326684000000       0.606467000000       1.000000000000
H H       0.224702000000       0.363214000000       0.695359000000       1.000000000000
H H       0.236309000000       0.375062000000       0.527054000000       1.000000000000
C C       0.117358000000       0.194937000000       0.259760000000       1.000000000000
H H       0.137431000000       0.168604000000       0.284259000000       1.000000000000
H H       0.147066000000       0.230232000000       0.195563000000       1.000000000000
H H       0.077383000000       0.166902000000       0.205797000000       1.000000000000
C C       0.058046000000       0.168650000000       0.462927000000       1.000000000000
H H       0.073796000000       0.139732000000       0.496818000000       1.000000000000
H H       0.018614000000       0.142445000000       0.405436000000       1.000000000000
H H       0.045511000000       0.184873000000       0.547002000000       1.000000000000
O O       0.071851000000       0.129073000000       1.002226000000       1.000000000000
H H       0.092020000000       0.105358000000       1.004505000000       1.000000000000
#END