data_cif

_audit_creation_method             'generated by GULP'

_symmetry_space_group_name_H-M     'R -3            '
_symmetry_Int_Tables_number        148
_symmetry_cell_setting             Hexagonal   

_cell_length_a                      26.766166
_cell_length_b                      26.766166
_cell_length_c                      10.865665
_cell_angle_alpha                   90.000000
_cell_angle_beta                    90.000000
_cell_angle_gamma                  120.000000

loop_
_atom_site_label
_atom_site_fract_x
_atom_site_fract_y
_atom_site_fract_z
_atom_site_occupancy
  O3          0.08584      0.26177      0.37409  1.0000
  C7          0.10844      0.22444      0.40330  1.0000
  C7          0.16437      0.25962      0.47949  1.0000
  H6          0.19568      0.29408      0.41964  1.0000
  H6          0.18342      0.23275      0.50150  1.0000
  C7          0.15681      0.28789      0.59798  1.0000
  C4          0.11707      0.35486      0.64920  1.0000
  H5          0.14195      0.36677      0.73381  1.0000
  C4          0.08316      0.37989      0.62254  1.0000
  H5          0.08258      0.41087      0.68618  1.0000
  C4          0.05051      0.36521      0.51413  1.0000
  H5          0.02429      0.38463      0.49329  1.0000
  C4          0.05215      0.32563      0.43215  1.0000
  H5          0.02801      0.31499      0.34674  1.0000
  C4          0.08542      0.29990      0.45888  1.0000
  C4          0.11874      0.31452      0.56801  1.0000
  C4          0.13194      0.24356      0.70496  1.0000
  C4          0.16293      0.21741      0.74992  1.0000
  H5          0.20415      0.22781      0.70960  1.0000
  C4          0.14097      0.17726      0.84666  1.0000
  H5          0.16568      0.15798      0.87986  1.0000
  C4          0.08764      0.16219      0.89958  1.0000
  C4          0.05669      0.18807      0.85736  1.0000
  H5          0.01520      0.17651      0.89769  1.0000
  C4          0.07840      0.22818      0.76065  1.0000
  H5          0.05237      0.24610      0.72790  1.0000
  C7          0.21794      0.33693      0.63532  1.0000
  H6          0.24906      0.32169      0.63550  1.0000
  H6          0.21785      0.35326      0.72767  1.0000
  H6          0.23368      0.37315      0.57048  1.0000
  C7          0.12320      0.20587      0.28063  1.0000
  H6          0.14156      0.17805      0.29824  1.0000
  H6          0.15462      0.24342      0.22790  1.0000
  H6          0.08480      0.18169      0.22353  1.0000
  C7          0.06049      0.17091      0.47071  1.0000
  H6          0.07768      0.14532      0.51231  1.0000
  H6          0.02622      0.14307      0.40634  1.0000
  H6          0.04043      0.18331      0.54312  1.0000
  O1          0.06519      0.12156      0.98986  1.0000
  H2          0.08971      0.10389      0.99721  1.0000
