# CIF file generated from CASTEP cell file
# https://gist.github.com/blake-armstrong/93facdde07a6e0a1ddb51857dd48e3f1
# Structure converted from CASTEP

data_structure

_cell_length_a    8.711210990684849
_cell_length_b    10.689928396881401
_cell_length_c    9.047402535921270
_cell_angle_alpha 90.000000000000000
_cell_angle_beta  90.000000000000000
_cell_angle_gamma 90.000000000000000

_symmetry_space_group_name_H-M 'P 1'
_symmetry_Int_Tables_number 1

loop_
_atom_site_label
_atom_site_type_symbol
_atom_site_fract_x
_atom_site_fract_y
_atom_site_fract_z
H1       H     0.284401368201842    0.324536686251563    0.692688339488950
H2       H     0.264605190218567    0.096596916745206    0.673411688560245
H3       H     0.114940800341575   -0.024555087123971    0.860568541385716
H4       H    -0.013474250651323    0.084939263029451    1.066072874335517
H5       H     0.005204402683707    0.317981566008805    1.086562455576834
H6       H     0.256259389246134    0.507915908574105    0.712156263301778
H7       H     0.203603938141300    0.722362237994079    0.708340400329910
H8       H     0.125844531756016    0.715935748024333    0.888575558615307
H9       H     0.468444882628106    0.892798469032070    0.914659663230213
H10      H     0.215598631798158    0.675463313748437    0.192688339488949
H11      H     0.235394809781433    0.903403083254795    0.173411688560243
H12      H     0.385059199658424    1.024555087123974    0.360568541385716
H13      H     0.513474250651322    0.915060736970549    0.566072874335516
H14      H     0.494795597316292    0.682018433991195    0.586562455576833
H15      H     0.243740610753866    0.492084091425896    0.212156263301779
H16      H     0.296396061858699    0.277637762005920    0.208340400329910
H17      H     0.374155468243984    0.284064251975668    0.388575558615306
H18      H     0.031555117371894    0.107201530967930    0.414659663230212
H19      H     0.784401368201842    0.175463313748437    0.307311660511051
H20      H     0.764605190218566    0.403403083254794    0.326588311439757
H21      H     0.614940800341575    0.524555087123972    0.139431458614284
H22      H     0.486525749348677    0.415060736970549   -0.066072874335516
H23      H     0.505204402683707    0.182018433991195   -0.086562455576833
H24      H     0.756259389246134   -0.007915908574103    0.287843736698221
H25      H     0.703603938141301   -0.222362237994080    0.291659599670090
H26      H     0.625844531756017   -0.215935748024332    0.111424441384694
H27      H     0.968444882628105   -0.392798469032070    0.085340336769787
H28      H     0.715598631798158    0.824536686251563    0.807311660511050
H29      H     0.735394809781434    0.596596916745205    0.826588311439755
H30      H     0.885059199658425    0.475444912876029    0.639431458614284
H31      H     1.013474250651322    0.584939263029451    0.433927125664483
H32      H     0.994795597316293    0.817981566008805    0.413437544423166
H33      H     0.743740610753866    1.007915908574101    0.787843736698222
H34      H     0.796396061858699    1.222362237994081    0.791659599670090
H35      H     0.874155468243983    1.215935748024331    0.611424441384693
H36      H     0.531555117371895    1.392798469032069    0.585340336769787
C1       C     0.147081858195744    0.337181968906496    0.893199873915897
C2       C     0.218046200861003    0.274159465092576    0.775338030482896
C3       C     0.206253118287976    0.144465120977466    0.763470179014732
C4       C     0.122761027400275    0.076643491458978    0.868207125380479
C5       C     0.050438541106457    0.138788331496753    0.984757212027160
C6       C     0.062204272812510    0.268288224118564    0.997123785689015
C7       C     0.158329317339848    0.474825654099582    0.916472329626347
C8       C     0.219883513189205    0.681649773363549    0.818404957456173
C9       C     0.369155847018388    0.731869805459368    0.883560058867630
C10      C     0.352918141804255    0.662818031093504    0.393199873915898
C11      C     0.281953799138997    0.725840534907424    0.275338030482897
C12      C     0.293746881712025    0.855534879022534    0.263470179014734
C13      C     0.377238972599725    0.923356508541024    0.368207125380479
C14      C     0.449561458893543    0.861211668503247    0.484757212027161
C15      C     0.437795727187490    0.731711775881436    0.497123785689015
C16      C     0.341670682660152    0.525174345900418    0.416472329626347
C17      C     0.280116486810795    0.318350226636451    0.318404957456174
C18      C     0.130844152981612    0.268130194540632    0.383560058867630
C19      C     0.647081858195745    0.162818031093503    0.106800126084103
C20      C     0.718046200861003    0.225840534907424    0.224661969517103
C21      C     0.706253118287975    0.355534879022534    0.236529820985266
C22      C     0.622761027400275    0.423356508541022    0.131792874619521
C23      C     0.550438541106458    0.361211668503247    0.015242787972840
C24      C     0.562204272812510    0.231711775881437    0.002876214310985
C25      C     0.658329317339849    0.025174345900418    0.083527670373653
C26      C     0.719883513189206   -0.181649773363549    0.181595042543826
C27      C     0.869155847018388   -0.231869805459368    0.116439941132369
C28      C     0.852918141804255    0.837181968906496    0.606800126084103
C29      C     0.781953799138997    0.774159465092576    0.724661969517104
C30      C     0.793746881712025    0.644465120977466    0.736529820985268
C31      C     0.877238972599725    0.576643491458976    0.631792874619521
C32      C     0.949561458893542    0.638788331496753    0.515242787972840
C33      C     0.937795727187490    0.768288224118564    0.502876214310985
C34      C     0.841670682660151    0.974825654099582    0.583527670373653
C35      C     0.780116486810794    1.181649773363548    0.681595042543827
C36      C     0.630844152981612    1.231869805459369    0.616439941132370
N1       N     0.213653833866687    0.546846504631717    0.807016779148815
N2       N     0.286346166133313    0.453153495368283    0.307016779148816
N3       N     0.713653833866687   -0.046846504631717    0.192983220851184
N4       N     0.786346166133313    1.046846504631716    0.692983220851185
O1       O     0.115249573073804    0.522411597359339    1.037525585219090
O2       O     0.468957523195970    0.668288331336237    0.941395886748117
O3       O     0.373017397637560    0.856160463640236    0.869589236205555
O4       O     0.384750426926196    0.477588402640660    0.537525585219090
O5       O     0.031042476804030    0.331711668663764    0.441395886748116
O6       O     0.126982602362439    0.143839536359764    0.369589236205556
O7       O     0.615249573073803   -0.022411597359339   -0.037525585219089
O8       O     0.968957523195968   -0.168288331336237    0.058604113251884
O9       O     0.873017397637560   -0.356160463640236    0.130410763794444
O10      O     0.884750426926197    1.022411597359338    0.462474414780910
O11      O     0.531042476804032    1.168288331336238    0.558604113251883
O12      O     0.626982602362440    1.356160463640234    0.630410763794445
