data_cif

_audit_creation_method             'generated by GULP'

_symmetry_space_group_name_H-M     'P 21 21 21      '
_symmetry_Int_Tables_number        19
_symmetry_cell_setting             Orthorhombic

_cell_length_a                       8.613448
_cell_length_b                      10.530266
_cell_length_c                       9.060800
_cell_angle_alpha                   90.000000
_cell_angle_beta                    90.000000
_cell_angle_gamma                   90.000000

loop_
_atom_site_label
_atom_site_fract_x
_atom_site_fract_y
_atom_site_fract_z
_atom_site_occupancy
  C6          0.13860      0.33052      0.88413  1.0000
  C6          0.21179      0.26432      0.76758  1.0000
  C6          0.19947      0.13174      0.75690  1.0000
  C6          0.11492      0.06364      0.86271  1.0000
  C6          0.04129      0.12801      0.97823  1.0000
  C6          0.05113      0.26068      0.98787  1.0000
  C9          0.15239      0.47248      0.90314  1.0000
  C4          0.22069      0.68147      0.78853  1.0000
  C9          0.36288      0.73954      0.86572  1.0000
  H10         0.27924      0.31383      0.68471  1.0000
  H10         0.25685      0.08158      0.66718  1.0000
  H10         0.10538      0.96100      0.85507  1.0000
  H10         0.97680      0.07457      0.06040  1.0000
  H10         0.99172      0.30939      0.07744  1.0000
  H2          0.25615      0.49205      0.69971  1.0000
  H3          0.21952      0.71593      0.67455  1.0000
  H3          0.11673      0.71919      0.84292  1.0000
  H7          0.46987      0.88622      0.89949  1.0000
  N1          0.21809      0.54013      0.78973  1.0000
  O5          0.10797      0.52542      0.01522  1.0000
  O5          0.45126      0.68458      0.94839  1.0000
  O8          0.38458      0.86148      0.83285  1.0000
