data_image0
_chemical_formula_structural       C36H36N4O12
_chemical_formula_sum              "C36 H36 N4 O12"
_cell_length_a       8.874
_cell_length_b       10.577
_cell_length_c       9.117
_cell_angle_alpha    90.0
_cell_angle_beta     90.0
_cell_angle_gamma    90.0

_space_group_name_H-M_alt    "P 1"
_space_group_IT_number       1

loop_
  _space_group_symop_operation_xyz
  'x, y, z'

loop_
  _atom_site_type_symbol
  _atom_site_label
  _atom_site_symmetry_multiplicity
  _atom_site_fract_x
  _atom_site_fract_y
  _atom_site_fract_z
  _atom_site_occupancy
  C   C1        1.0  0.14845231441993992  0.33615958137314067  0.8920867004596701  1.0000
  C   C2        1.0  0.6484522662004568  0.1638404712909299  0.10791324971296128  1.0000
  C   C3        1.0  0.851547663129254  0.8361595537712296  0.6079132718875371  1.0000
  C   C4        1.0  0.35154767545135257  0.6638403996709455  0.39208670450952526  1.0000
  C   C5        1.0  0.21853794545648364  0.2717883497338679  0.7757026627690154  1.0000
  C   C6        1.0  0.7185379109649425  0.22821164435398109  0.2242972955024222  1.0000
  C   C7        1.0  0.7814620568056205  0.771788369871701  0.7242973135724755  1.0000
  C   C8        1.0  0.281462096690804  0.728211579500289  0.27570272763363485  1.0000
  C   C9        1.0  0.2051143072658968  0.14081989840838172  0.7633582410789297  1.0000
  C   C10       1.0  0.705114210098244  0.35918022158631274  0.23664171671570156  1.0000
  C   C11       1.0  0.7948856984915523  0.640819759519713  0.7366417768467737  1.0000
  C   C12       1.0  0.2948857245040207  0.8591802563544606  0.263358264127449  1.0000
  C   C13       1.0  0.12071958371220805  0.07297525539641897  0.866121962394569  1.0000
  C   C14       1.0  0.6207196881786246  0.42702472805945346  0.1338781340311725  1.0000
  C   C15       1.0  0.8792803196830767  0.5729752432155574  0.6338780782709272  1.0000
  C   C16       1.0  0.3792804212328244  0.9270245832533566  0.36612195827036925  1.0000
  C   C17       1.0  0.0494314509423718  0.13633238374356868  0.98129264428047  1.0000
  C   C18       1.0  0.5494313935423916  0.3636677170503493  0.018707243509636054  1.0000
  C   C19       1.0  0.9505685748763394  0.6363322699697433  0.5187072565250768  1.0000
  C   C20       1.0  0.4505685705805554  0.8636677898430387  0.4812926768007913  1.0000
  C   C21       1.0  0.06298042529458824  0.2670925865513207  0.9942311843308566  1.0000
  C   C22       1.0  0.5629804903444955  0.23290737623920413  0.005768907476905896  1.0000
  C   C23       1.0  0.9370196048929185  0.7670925882542907  0.5057687268095667  1.0000
  C   C24       1.0  0.4370195778832305  0.7329073488434279  0.4942311840532063  1.0000
  C   C25       1.0  0.16143712223111906  0.47519025551389216  0.9157276033257076  1.0000
  C   C26       1.0  0.6614371378406771  0.024809634482048967  0.08427231606976325  1.0000
  C   C27       1.0  0.838562904844003  0.9751903014256231  0.5842722846261811  1.0000
  C   C28       1.0  0.33856284505262285  0.524809744289271  0.4157276098163195  1.0000
  C   C29       1.0  0.22457943834159563  0.6839755344741584  0.8195824812575941  1.0000
  C   C30       1.0  0.7245794284767226  0.8160243943232159  0.18041753073233324  1.0000
  C   C31       1.0  0.7754205462774969  0.1839756111737769  0.6804175709733588  1.0000
  C   C32       1.0  0.27542060570841237  0.3160244534764634  0.3195824731575348  1.0000
  C   C33       1.0  0.37226608019788254  0.7328754114837639  0.8836435352051509  1.0000
  C   C34       1.0  0.8722662564741015  0.7671248206546014  0.11635637130793144  1.0000
  C   C35       1.0  0.6277337449169977  0.2328752757426792  0.6163563394731977  1.0000
  C   C36       1.0  0.12773391689792735  0.26712466501648224  0.3836435756986893  1.0000
  H   H1        1.0  0.285623540695347  0.32207933330482963  0.6943972949484354  1.0000
  H   H2        1.0  0.7856235039653512  0.17792070600164214  0.3056027081350878  1.0000
  H   H3        1.0  0.7143764579482001  0.8220793022044592  0.8056026885905034  1.0000
  H   H4        1.0  0.21437645799667784  0.6779206613428146  0.194397331312337  1.0000
  H   H5        1.0  0.2628679739517708  0.09197262564558031  0.6743573657197334  1.0000
  H   H6        1.0  0.7628679201791008  0.4080274015115901  0.3256425899505551  1.0000
  H   H7        1.0  0.7371320387609133  0.5919725802360456  0.8256426652946643  1.0000
  H   H8        1.0  0.23713207595221578  0.9080273548183518  0.1743574110827394  1.0000
  H   H9        1.0  0.11112265313334622  0.97066779294503  0.8581672101717455  1.0000
  H   H10       1.0  0.6111226253806262  0.5293322466027722  0.14183278480912462  1.0000
  H   H11       1.0  0.8888773368222602  0.470667784975814  0.6418327927385228  1.0000
  H   H12       1.0  0.38887737853542975  0.02933229802661429  0.35816719870715674  1.0000
  H   H13       1.0  0.9848861243378186  0.08224665990528472  0.06123138428279524  1.0000
  H   H14       1.0  0.48488623591451907  0.4177532734763995  0.9387686942223712  1.0000
  H   H15       1.0  0.015113819782397333  0.5822466992599125  0.438768663831527  1.0000
  H   H16       1.0  0.5151137839856739  0.9177532871232055  0.5612313014681002  1.0000
  H   H17       1.0  0.006870011754017469  0.3175558640055758  0.08300359855683748  1.0000
  H   H18       1.0  0.5068700208926764  0.1824441110995407  0.9169963397766416  1.0000
  H   H19       1.0  0.993129960062831  0.8175558641628047  0.4169964419400192  1.0000
  H   H20       1.0  0.4931299989300505  0.6824441078236492  0.5830036295104655  1.0000
  H   H21       1.0  0.2560754270250634  0.5087824353461636  0.7125936338777102  1.0000
  H   H22       1.0  0.7560754206595101  0.9912174967312982  0.28740637708600536  1.0000
  H   H23       1.0  0.7439245519339805  0.00878252347454071  0.7874063767305672  1.0000
  H   H24       1.0  0.243924592337359  0.49121753476500024  0.21259365643810693  1.0000
  H   H25       1.0  0.20888799996945936  0.7257380546665434  0.7103877688062973  1.0000
  H   H26       1.0  0.708887926149011  0.7742618972420432  0.28961229668736566  1.0000
  H   H27       1.0  0.7911120728759392  0.22573812060203938  0.7896122934520292  1.0000
  H   H28       1.0  0.2911120680745343  0.2742619120755261  0.21038773209216988  1.0000
  H   H29       1.0  0.13302151158814232  0.7195095104526155  0.8899173688620966  1.0000
  H   H30       1.0  0.6330214894969619  0.780490550023451  0.11008268419974152  1.0000
  H   H31       1.0  0.8669784661289524  0.21950940794563195  0.6100826765065954  1.0000
  H   H32       1.0  0.3669784630542192  0.28049054059168904  0.38991735403584665  1.0000
  H   H33       1.0  0.47303534185720214  0.8948316663422987  0.9149407990088784  1.0000
  H   H34       1.0  0.9730352992564011  0.6051683144119394  0.0850591989509684  1.0000
  H   H35       1.0  0.5269646941239725  0.3948316831438473  0.5850592091170682  1.0000
  H   H36       1.0  0.02696468696356578  0.10516830875243725  0.4149408390318826  1.0000
  N   N1        1.0  0.21611331507992945  0.5479912577996799  0.8076312177014052  1.0000
  N   N2        1.0  0.7161132913174492  0.9520087062502649  0.19236873535448185  1.0000
  N   N3        1.0  0.7838866863896272  0.04799133507294171  0.6923686454156518  1.0000
  N   N4        1.0  0.28388672572165713  0.4520087460849983  0.3076313265223915  1.0000
  O   O1        1.0  0.12021803852173438  0.5233088153203431  0.03669675340483592  1.0000
  O   O2        1.0  0.620218023398387  0.9766912251303623  0.9633032181585657  1.0000
  O   O3        1.0  0.8797820097973496  0.0233088342904598  0.4633032083457593  1.0000
  O   O4        1.0  0.37978198851789974  0.47669119075168614  0.536696841042636  1.0000
  O   O5        1.0  0.46978429526906074  0.6667711677499533  0.9401091174316379  1.0000
  O   O6        1.0  0.9697841393286919  0.833228754478146  0.05989090352340138  1.0000
  O   O7        1.0  0.5302158176068006  0.16677119401689036  0.5598908371971074  1.0000
  O   O8        1.0  0.030215749350489592  0.33322885697427357  0.44010914690916225  1.0000
  O   O9        1.0  0.3781139156042722  0.8585901396898662  0.8705693912341097  1.0000
  O   O10       1.0  0.8781138436730701  0.6414097951861518  0.12943059514364577  1.0000
  O   O11       1.0  0.6218861107615169  0.35859021123857865  0.6294305875997878  1.0000
  O   O12       1.0  0.12188614732969492  0.14140986341275955  0.3705694278882077  1.0000
