data_HIPPAC.b3lyp.6-311G**.dma4.-117.356.1.3844
_audit_creation_method 'generated by cspy2.0'
_cell_length_a 8.8471
_cell_length_b 10.5564
_cell_length_c 9.2045
_cell_angle_alpha 90.0
_cell_angle_beta 90.0
_cell_angle_gamma 90.0
loop_
_symmetry_equiv_pos_site_id
_symmetry_equiv_pos_as_xyz
1 +x,+y,+z
loop_
_atom_site_label
_atom_site_type_symbol
_atom_site_fract_x
_atom_site_fract_y
_atom_site_fract_z
_atom_site_occupancy
C1 C       0.145969850000       0.336132810000       0.891048980000       1.000000000000
C2 C       0.218329550000       0.270533800000       0.777542910000       1.000000000000
C3 C       0.205269160000       0.140055260000       0.769464540000       1.000000000000
C4 C       0.121933540000       0.073070270000       0.873477940000       1.000000000000
C5 C       0.049342140000       0.137663520000       0.985108040000       1.000000000000
C6 C       0.060213490000       0.269445320000       0.994307230000       1.000000000000
C7 C       0.157730990000       0.476353790000       0.911703770000       1.000000000000
C8 C       0.220022350000       0.682601580000       0.810537540000       1.000000000000
C9 C       0.366870550000       0.728016090000       0.876759420000       1.000000000000
C10 C       0.848354100000       0.836132810000       0.607564890000       1.000000000000
C11 C       0.775994420000       0.770533810000       0.721070950000       1.000000000000
C12 C       0.789054810000       0.640055270000       0.729149340000       1.000000000000
C13 C       0.872390430000       0.573070270000       0.625135930000       1.000000000000
C14 C       0.944981800000       0.637663520000       0.513505820000       1.000000000000
C15 C       0.934110470000       0.769445320000       0.504306630000       1.000000000000
C16 C       0.836592970000       0.976353800000       0.586910090000       1.000000000000
C17 C       0.774301610000       1.182601590000       0.688076320000       1.000000000000
C18 C       0.627453410000       1.228016080000       0.621854440000       1.000000000000
C19 C       0.348354100000       0.666498760000       0.391048980000       1.000000000000
C20 C       0.275994420000       0.732097760000       0.277542910000       1.000000000000
C21 C       0.289054810000       0.862576300000       0.269464550000       1.000000000000
C22 C       0.372390420000       0.929561300000       0.373477950000       1.000000000000
C23 C       0.444981810000       0.864968040000       0.485108050000       1.000000000000
C24 C       0.434110470000       0.733186250000       0.494307230000       1.000000000000
C25 C       0.336592970000       0.526277780000       0.411703760000       1.000000000000
C26 C       0.274301600000       0.320029990000       0.310537540000       1.000000000000
C27 C       0.127453400000       0.274615480000       0.376759420000       1.000000000000
C28 C       0.645969850000       0.166498770000       0.107564890000       1.000000000000
C29 C       0.718329540000       0.232097760000       0.221070950000       1.000000000000
C30 C       0.705269150000       0.362576300000       0.229149320000       1.000000000000
C31 C       0.621933540000       0.429561300000       0.125135920000       1.000000000000
C32 C       0.549342160000       0.364968050000       0.013505810000       1.000000000000
C33 C       0.560213490000       0.233186260000       0.004306630000       1.000000000000
C34 C       0.657730990000       0.026277780000       0.086910100000       1.000000000000
C35 C       0.720022350000      -0.179970010000       0.188076320000       1.000000000000
C36 C       0.866870550000      -0.225384510000       0.121854450000       1.000000000000
H1 H       0.291184930000       0.321842570000       0.705236550000       1.000000000000
H2 H       0.252915370000       0.093408770000       0.672545230000       1.000000000000
H3 H       0.107126800000      -0.020249250000       0.859090890000       1.000000000000
H4 H      -0.014958720000       0.106728150000       1.071888740000       1.000000000000
H5 H      -0.021356250000       0.315620840000       1.066699030000       1.000000000000
H6 H       0.209251400000       0.530596280000       0.706090530000       1.000000000000
H7 H       0.184581970000       0.721549750000       0.704998860000       1.000000000000
H8 H       0.129763640000       0.715915150000       0.866852880000       1.000000000000
H9 H       0.439456030000       0.880417660000       0.905836300000       1.000000000000
H10 H       0.703139040000       0.821842580000       0.793377310000       1.000000000000
H11 H       0.741408600000       0.593408780000       0.826068630000       1.000000000000
H12 H       0.887197160000       0.479750760000       0.639522980000       1.000000000000
H13 H       1.009282670000       0.606728150000       0.426725120000       1.000000000000
H14 H       1.015680210000       0.815620820000       0.431914820000       1.000000000000
H15 H       0.785072570000       1.030596290000       0.792523340000       1.000000000000
H16 H       0.809742000000       1.221549760000       0.793615000000       1.000000000000
H17 H       0.864560310000       1.215915150000       0.631760980000       1.000000000000
H18 H       0.554867940000       1.380417660000       0.592777580000       1.000000000000
H19 H       0.203139030000       0.680788990000       0.205236570000       1.000000000000
H20 H       0.241408590000       0.909222800000       0.172545240000       1.000000000000
H21 H       0.387197160000       1.022880810000       0.359090890000       1.000000000000
H22 H       0.509282680000       0.895903430000       0.571888740000       1.000000000000
H23 H       0.515680220000       0.687010740000       0.566699040000       1.000000000000
H24 H       0.285072560000       0.472035290000       0.206090530000       1.000000000000
H25 H       0.309741990000       0.281081820000       0.204998860000       1.000000000000
H26 H       0.364560310000       0.286716410000       0.366852880000       1.000000000000
H27 H       0.054867930000       0.122213910000       0.405836290000       1.000000000000
H28 H       0.791184920000       0.180789000000       0.293377300000       1.000000000000
H29 H       0.752915360000       0.409222810000       0.326068630000       1.000000000000
H30 H       0.607126800000       0.522880810000       0.139522980000       1.000000000000
H31 H       0.485041290000       0.395903430000      -0.073274880000       1.000000000000
H32 H       0.478643750000       0.187010740000      -0.068085170000       1.000000000000
H33 H       0.709251390000      -0.027964710000       0.292523340000       1.000000000000
H34 H       0.684581960000      -0.218918170000       0.293615000000       1.000000000000
H35 H       0.629763640000      -0.213283580000       0.131760980000       1.000000000000
H36 H       0.939456020000      -0.377786090000       0.092777590000       1.000000000000
N1 N       0.211566600000       0.545311000000       0.801512570000       1.000000000000
N2 N       0.782757360000       1.045311010000       0.697101290000       1.000000000000
N3 N       0.282757360000       0.457320570000       0.301512570000       1.000000000000
N4 N       0.711566600000      -0.042679430000       0.197101290000       1.000000000000
O1 O       0.118429260000       0.525948100000       1.027504140000       1.000000000000
O2 O       0.464126590000       0.664057720000       0.929183060000       1.000000000000
O3 O       0.372431180000       0.853548060000       0.868326050000       1.000000000000
O4 O       0.875894680000       1.025948100000       0.471109730000       1.000000000000
O5 O       0.530197370000       1.164057730000       0.569430810000       1.000000000000
O6 O       0.621892780000       1.353548070000       0.630287810000       1.000000000000
O7 O       0.375894680000       0.476683470000       0.527504130000       1.000000000000
O8 O       0.030197360000       0.338573840000       0.429183060000       1.000000000000
O9 O       0.121892770000       0.149083510000       0.368326040000       1.000000000000
O10 O       0.618429270000      -0.023316520000      -0.028890260000       1.000000000000
O11 O       0.964126590000      -0.161426150000       0.069430820000       1.000000000000
O12 O       0.872431180000      -0.350916490000       0.130287830000       1.000000000000
#END