data_C9H9NO3
_audit_creation_method 'chmpy python library version 1.0a1'
_cell_length_a 8.077586
_cell_length_b 10.671643
_cell_length_c 8.816311
_cell_angle_alpha 90.0
_cell_angle_beta 90.0
_cell_angle_gamma 90.0
loop_
_symmetry_equiv_pos_site_id
_symmetry_equiv_pos_as_xyz
                   1 +x,+y,+z
                   2 -x,1/2+y,1/2-z
                   3 1/2-x,-y,1/2+z
                   4 1/2+x,1/2-y,-z
loop_
_atom_site_label
_atom_site_type_symbol
_atom_site_fract_x
_atom_site_fract_y
_atom_site_fract_z
_atom_site_occupancy
C C       0.150244000000       0.300112000000       0.884488000000       1.000000000000
C C       0.228622000000       0.247427000000       0.756098000000       1.000000000000
C C       0.220505000000       0.118457000000       0.727922000000       1.000000000000
C C       0.132523000000       0.039639000000       0.826470000000       1.000000000000
C C       0.053683000000       0.089903000000       0.954209000000       1.000000000000
C C       0.063452000000       0.218609000000       0.983028000000       1.000000000000
C C       0.151078000000       0.437863000000       0.918211000000       1.000000000000
C C       0.208453000000       0.658288000000       0.836521000000       1.000000000000
C C       0.362532000000       0.731788000000       0.877256000000       1.000000000000
H H       0.293360000000       0.308196000000       0.676112000000       1.000000000000
H H       0.281641000000       0.079524000000       0.627658000000       1.000000000000
H H       0.123914000000       0.939061000000       0.803093000000       1.000000000000
H H       0.980196000000       0.029036000000       0.028168000000       1.000000000000
H H       1.002591000000       0.259172000000       0.082347000000       1.000000000000
H H       0.293938000000       0.496733000000       0.723814000000       1.000000000000
H H       0.156911000000       0.695493000000       0.728857000000       1.000000000000
H H       0.111679000000       0.674198000000       0.923734000000       1.000000000000
H H       0.453123000000       0.902729000000       0.862639000000       1.000000000000
N N       0.233786000000       0.522715000000       0.823684000000       1.000000000000
O O       0.075365000000       0.477476000000       0.031587000000       1.000000000000
O O       0.463983000000       0.693196000000       0.971689000000       1.000000000000
O O       0.373648000000       0.846372000000       0.806217000000       1.000000000000
#END