data_image0
_chemical_formula_structural       C36H36N4O12
_chemical_formula_sum              "C36 H36 N4 O12"
_cell_length_a       8.906310245134694
_cell_length_b       10.662616914784051
_cell_length_c       9.133874924590566
_cell_angle_alpha    89.98053726987153
_cell_angle_beta     89.96444431475636
_cell_angle_gamma    89.93323251964735

_space_group_name_H-M_alt    "P 1"
_space_group_IT_number       1

loop_
  _space_group_symop_operation_xyz
  'x, y, z'

loop_
  _atom_site_type_symbol
  _atom_site_label
  _atom_site_symmetry_multiplicity
  _atom_site_fract_x
  _atom_site_fract_y
  _atom_site_fract_z
  _atom_site_occupancy
  C   C1        1.0  0.1541590457450233  0.3409380176022379  0.8979741358831551  1.0000
  C   C2        1.0  0.6542742973401915  0.15930563482774665  0.10239313491810581  1.0000
  C   C3        1.0  0.8459620565645171  0.8403591961556256  0.6022451783078056  1.0000
  C   C4        1.0  0.3457300986502201  0.6593990955669149  0.3976343825580105  1.0000
  C   C5        1.0  0.22368250312993362  0.279160405504503  0.7807142217509645  1.0000
  C   C6        1.0  0.723522574060781  0.2208316043707402  0.2197898277167588  1.0000
  C   C7        1.0  0.7758888292680172  0.7789161600634101  0.7193928193997533  1.0000
  C   C8        1.0  0.2760112566739561  0.7211278159021944  0.28050028459370074  1.0000
  C   C9        1.0  0.21075100202410169  0.14977023133419426  0.7661678716953481  1.0000
  C   C10       1.0  0.7110642640877333  0.3502915137828517  0.23418496448664883  1.0000
  C   C11       1.0  0.7882077418943743  0.6494596378009836  0.7340412397136887  1.0000
  C   C12       1.0  0.2886290114004949  0.8505457961350683  0.26585482755030404  1.0000
  C   C13       1.0  0.12740631575914718  0.08109479522343904  0.8674562326440224  1.0000
  C   C14       1.0  0.6285717484590132  0.4193009742954901  0.13250293325654908  1.0000
  C   C15       1.0  0.8714550289905695  0.5803977143572097  0.6329551876113179  1.0000
  C   C16       1.0  0.3718812573144365  0.9192943929993392  0.36700532939290864  1.0000
  C   C17       1.0  0.05603419208073544  0.1422004507375557  0.9830940560779904  1.0000
  C   C18       1.0  0.5573677389414747  0.3584463165018466  0.01674853174801453  1.0000
  C   C19       1.0  0.9434659442567935  0.6411690775171973  0.5174957216450695  1.0000
  C   C20       1.0  0.4434046681071766  0.8582485136112022  0.4825661073148439  1.0000
  C   C21       1.0  0.06900726989002182  0.2714429876226266  0.9981861738104499  1.0000
  C   C22       1.0  0.5698825523541132  0.22911883902941002  0.0018493545351332477  1.0000
  C   C23       1.0  0.9310467129801092  0.7704697304975311  0.5022680121685311  1.0000
  C   C24       1.0  0.43070734904747565  0.7289781664279729  0.4977305258500749  1.0000
  C   C25       1.0  0.16672735241302244  0.4779264743136786  0.9227634894238684  1.0000
  C   C26       1.0  0.6666089868975275  0.022235953947811696  0.07774111245976531  1.0000
  C   C27       1.0  0.8337604984683284  0.977362434122034  0.5771739059442544  1.0000
  C   C28       1.0  0.33340867918798744  0.5223595521368537  0.4223672862219801  1.0000
  C   C29       1.0  0.23185999772127489  0.6838683353349724  0.8289927222393053  1.0000
  C   C30       1.0  0.7315968436677547  0.8162850576699321  0.1719558341450458  1.0000
  C   C31       1.0  0.7683777537706196  0.1835413357219552  0.6704402667254986  1.0000
  C   C32       1.0  0.26858385159354325  0.3163865806220806  0.3286871336317162  1.0000
  C   C33       1.0  0.37899749856158305  0.7321990768348344  0.8914420525810263  1.0000
  C   C34       1.0  0.8785574467466335  0.7677263332965426  0.10887038981661472  1.0000
  C   C35       1.0  0.6211643631257066  0.23176638946625064  0.6077451520343075  1.0000
  C   C36       1.0  0.12130617752453847  0.2681491967340582  0.3911693907269483  1.0000
  H   H1        1.0  0.28942135364992033  0.3310431739235659  0.6994571264975649  1.0000
  H   H2        1.0  0.7886167385916701  0.16874152903725384  0.3013998668142133  1.0000
  H   H3        1.0  0.7103861284161859  0.8311441405687581  0.8005794580008423  1.0000
  H   H4        1.0  0.21040876115842477  0.6691659772413727  0.19933789678615313  1.0000
  H   H5        1.0  0.268351881135861  0.10287797248448725  0.6756151895191437  1.0000
  H   H6        1.0  0.7685762098105039  0.39695286155975273  0.3248150092273497  1.0000
  H   H7        1.0  0.7300833172425051  0.6028156216624295  0.8244035175574331  1.0000
  H   H8        1.0  0.23079879941465034  0.897382663432601  0.17541548627487052  1.0000
  H   H9        1.0  0.1187934196613357  0.9791947085558919  0.8582917847776982  1.0000
  H   H10       1.0  0.6205616472012567  0.5212445821691155  0.14162569737737668  1.0000
  H   H11       1.0  0.8796177605447721  0.47845988989037835  0.6422635726757205  1.0000
  H   H12       1.0  0.38030583654796835  0.021196719400302395  0.35772795668510554  1.0000
  H   H13       1.0  0.9916348699032626  0.08712502351958147  0.062250195884699336  1.0000
  H   H14       1.0  0.49359136709989127  0.41372949550245874  0.9372572447817376  1.0000
  H   H15       1.0  0.007778413014275482  0.5857198510677265  0.43853385501973685  1.0000
  H   H16       1.0  0.5076941518490903  0.9133856708227841  0.5616390211629466  1.0000
  H   H17       1.0  0.012185828703092483  0.3210214905390906  0.08733668220691704  1.0000
  H   H18       1.0  0.5132258434115563  0.17978503188393333  0.9125526412349886  1.0000
  H   H19       1.0  0.98837539217497  0.8197798403111338  0.41324487465015575  1.0000
  H   H20       1.0  0.48766806171127397  0.6794756913977221  0.5868468782290936  1.0000
  H   H21       1.0  0.2639699129267345  0.5105152295488655  0.7208731115885592  1.0000
  H   H22       1.0  0.7640474027869207  0.9895842365650875  0.2795654463834712  1.0000
  H   H23       1.0  0.7364337197104817  0.010400383749541619  0.7788817753831966  1.0000
  H   H24       1.0  0.23597631883812242  0.4897004928274674  0.22066031248977158  1.0000
  H   H25       1.0  0.21477111805119137  0.7266793929606237  0.7203567180967729  1.0000
  H   H26       1.0  0.714973690742125  0.7738145477846031  0.28081809485662607  1.0000
  H   H27       1.0  0.7854459606589057  0.22646024694106875  0.778940328528858  1.0000
  H   H28       1.0  0.28574088034893724  0.2737161087355624  0.2200233837454867  1.0000
  H   H29       1.0  0.14089843377754138  0.7190899018841265  0.9007294155702349  1.0000
  H   H30       1.0  0.6403273668902263  0.7809587224418421  0.10086757875264588  1.0000
  H   H31       1.0  0.8592093761524359  0.21858476618895373  0.5985193851488505  1.0000
  H   H32       1.0  0.35958651162225574  0.28102091675509305  0.40016852358986194  1.0000
  H   H33       1.0  0.48085330408557625  0.8927456420791006  0.9216009112004458  1.0000
  H   H34       1.0  0.9810003174290849  0.6070780357467903  0.07944717574398422  1.0000
  H   H35       1.0  0.5185881495153896  0.3924385435000604  0.5779543418922933  1.0000
  H   H36       1.0  0.01956165750309336  0.10742137982465352  0.42147747156596016  1.0000
  N   N1        1.0  0.2229430743843156  0.5497603153802393  0.8161559743399932  1.0000
  N   N2        1.0  0.7225495847264172  0.9503992932801604  0.1845165876080936  1.0000
  N   N3        1.0  0.7776842289776296  0.04948562129234354  0.6836522508798787  1.0000
  N   N4        1.0  0.2774643770615504  0.4505230841387885  0.31580720628591813  1.0000
  O   O1        1.0  0.12442332024561432  0.5251898859699126  0.04307118338799411  1.0000
  O   O2        1.0  0.6242792833523381  0.9749623277468236  0.9575489439704373  1.0000
  O   O3        1.0  0.8763262904522072  0.02436826431098089  0.4568192838363765  1.0000
  O   O4        1.0  0.37580409780326507  0.47514252230228887  0.5426682596351817  1.0000
  O   O5        1.0  0.4771319987115613  0.6663772419547598  0.9445284462897566  1.0000
  O   O6        1.0  0.9759057889907832  0.8334420792777699  0.054432316517061034  1.0000
  O   O7        1.0  0.5236113999004889  0.16582773807131898  0.5541820249895204  1.0000
  O   O8        1.0  0.023017312127584462  0.33415711035048856  0.44371520658845254  1.0000
  O   O9        1.0  0.3835817060767161  0.8561891343703858  0.8811471071800515  1.0000
  O   O10       1.0  0.8838847950311826  0.6438394413500491  0.12041140233392007  1.0000
  O   O11       1.0  0.6159447696449822  0.3556869618517225  0.6184169957019555  1.0000
  O   O12       1.0  0.11692280728401783  0.14412945049856465  0.3813433598490256  1.0000
