data_image0
_chemical_formula_structural       Br8C12H4
_chemical_formula_sum              "Br8 C12 H4"
_cell_length_a       10.717888100945878
_cell_length_b       10.670388775327869
_cell_length_c       4.069012417965058
_cell_angle_alpha    90.04626118796357
_cell_angle_beta     107.38468163294068
_cell_angle_gamma    89.99412153678325

_space_group_name_H-M_alt    "P 1"
_space_group_IT_number       1

loop_
  _space_group_symop_operation_xyz
  'x, y, z'

loop_
  _atom_site_type_symbol
  _atom_site_label
  _atom_site_symmetry_multiplicity
  _atom_site_fract_x
  _atom_site_fract_y
  _atom_site_fract_z
  _atom_site_occupancy
  Br  Br1       1.0  0.09121833699997971  0.29075245534903665  0.9470816194011556  1.0000
  Br  Br2       1.0  0.40874690546006287  0.7908416860534345  0.05285503387971115  1.0000
  Br  Br3       1.0  0.9083766680749372  0.709288865369453  0.052176844810689536  1.0000
  Br  Br4       1.0  0.5912251457453963  0.20914014232272665  0.9475636195092779  1.0000
  Br  Br5       1.0  0.30469419610331855  0.07368592434883384  0.39992358029399944  1.0000
  Br  Br6       1.0  0.19548650899365116  0.5736190006071848  0.5987588248313249  1.0000
  Br  Br7       1.0  0.6950473614231771  0.9263762805188174  0.5994341170281784  1.0000
  Br  Br8       1.0  0.8048702076809107  0.4262616398915617  0.40085396510967913  1.0000
  C   C1        1.0  0.1290037541575435  0.03330338508612502  0.16717476916472176  1.0000
  C   C2        1.0  0.37107441432033156  0.5334105585685048  0.8326954353541899  1.0000
  C   C3        1.0  0.8706665270056229  0.9666268086174105  0.8327034100493336  1.0000
  C   C4        1.0  0.6293201237509933  0.4666872121797495  0.16801877150988337  1.0000
  C   C5        1.0  0.040954514069169994  0.12297870873762366  0.9821674495225503  1.0000
  C   C6        1.0  0.459117388206544  0.6230653764494084  0.018203025250204792  1.0000
  C   C7        1.0  0.9587468207594297  0.8769803191002489  0.017668394963788706  1.0000
  C   C8        1.0  0.5412354527036076  0.37699557371076436  0.9825995494974176  1.0000
  C   C9        1.0  0.911895922704987  0.08959638480944995  0.8149742457911019  1.0000
  C   C10       1.0  0.5881601388430175  0.5897233003004687  0.18576205718373037  1.0000
  C   C11       1.0  0.08788078455044931  0.910242369374391  0.184788065915498  1.0000
  C   C12       1.0  0.4122520427797977  0.4103870226253134  0.8148050334025393  1.0000
  H   H1        1.0  0.843111459054404  0.16001228029456416  0.6702648142730557  1.0000
  H   H2        1.0  0.6568850846006885  0.6602065512508444  0.33074408879137357  1.0000
  H   H3        1.0  0.15663220574438957  0.8397652986502787  0.3291061710166968  1.0000
  H   H4        1.0  0.3433999896553111  0.3400531202591905  0.6696777097588373  1.0000
