data_TETBBZ01.b3lyp.6-311G**.dma4.-272.5252.3.1611
_audit_creation_method 'generated by cspy2.0'
_cell_length_a 7.7331
_cell_length_b 11.6423
_cell_length_c 5.285
_cell_angle_alpha 90.0
_cell_angle_beta 119.6238
_cell_angle_gamma 90.0
loop_
_symmetry_equiv_pos_site_id
_symmetry_equiv_pos_as_xyz
1 +x,+y,+z
loop_
_atom_site_label
_atom_site_type_symbol
_atom_site_fract_x
_atom_site_fract_y
_atom_site_fract_z
_atom_site_occupancy
Br1 Br       0.878296070000       0.224398410000       0.252803510000       1.000000000000
Br2 Br       1.296883980000       0.072852280000       0.676965690000       1.000000000000
Br3 Br       0.703116020000      -0.072852280000      -0.676965690000       1.000000000000
Br4 Br       1.121703930000      -0.224398410000      -0.252803510000       1.000000000000
Br5 Br       0.626153160000       0.724398390000       0.729872450000       1.000000000000
Br6 Br       0.207565270000       0.572852280000       0.305710280000       1.000000000000
Br7 Br       0.801333240000       0.427147720000       1.659641690000       1.000000000000
Br8 Br       0.382745350000       0.275601610000       1.235479530000       1.000000000000
C1 C       1.122823730000       0.033378520000       0.278120620000       1.000000000000
C2 C       0.948094030000       0.095060690000       0.107090210000       1.000000000000
C3 C       0.820302700000       0.063149600000      -0.186018100000       1.000000000000
C4 C       1.179697300000      -0.063149600000       0.186018100000       1.000000000000
C5 C       0.877176270000      -0.033378520000      -0.278120620000       1.000000000000
C6 C       1.051905970000      -0.095060690000      -0.107090210000       1.000000000000
C7 C       0.381625520000       0.533378510000       0.704555370000       1.000000000000
C8 C       0.556355220000       0.595060690000       0.875585760000       1.000000000000
C9 C       0.684146550000       0.563149590000       1.168694070000       1.000000000000
C10 C       0.324751950000       0.436850410000       0.796657900000       1.000000000000
C11 C       0.627272980000       0.466621490000       1.260796600000       1.000000000000
C12 C       0.452543290000       0.404939320000       1.089766220000       1.000000000000
H1 H       0.686345670000       0.111394810000      -0.329072340000       1.000000000000
H2 H       1.313654330000      -0.111394810000       0.329072340000       1.000000000000
H3 H       0.818103570000       0.611394810000       1.311748310000       1.000000000000
H4 H       0.190794940000       0.388605200000       0.653603670000       1.000000000000
#END