data_image0
_chemical_formula_structural       Br8C12H4
_chemical_formula_sum              "Br8 C12 H4"
_cell_length_a       10.323
_cell_length_b       10.705
_cell_length_c       4.018
_cell_angle_alpha    90.0
_cell_angle_beta     102.36
_cell_angle_gamma    90.0

_space_group_name_H-M_alt    "P 1"
_space_group_IT_number       1

loop_
  _space_group_symop_operation_xyz
  'x, y, z'

loop_
  _atom_site_type_symbol
  _atom_site_label
  _atom_site_symmetry_multiplicity
  _atom_site_fract_x
  _atom_site_fract_y
  _atom_site_fract_z
  _atom_site_occupancy
  Br  Br1       1.0  0.08598188208919968  0.29602851111350076  0.9870114026777496  1.0000
  Br  Br2       1.0  0.4140181649760749  0.7960283538475298  0.012988588288584794  1.0000
  Br  Br3       1.0  0.9139689910955777  0.7040867489344323  0.014591212517644324  1.0000
  Br  Br4       1.0  0.5860310289719884  0.20408665638889922  0.9854089016838972  1.0000
  Br  Br5       1.0  0.29592980724505785  0.08242908919343093  0.4311875153666889  1.0000
  Br  Br6       1.0  0.2040703085866546  0.5824289725555277  0.5688127546037578  1.0000
  Br  Br7       1.0  0.7048208433140213  0.9173531181517325  0.5643859328185776  1.0000
  Br  Br8       1.0  0.7951792284412125  0.4173531905127623  0.4356140405727854  1.0000
  C   C1        1.0  0.12492094431008495  0.037032923023519605  0.1819711795817659  1.0000
  C   C2        1.0  0.37507904078387494  0.537032938903123  0.8180290263664272  1.0000
  C   C3        1.0  0.8751913579892627  0.9629632275747338  0.8171118944921995  1.0000
  C   C4        1.0  0.6248086907441891  0.46296343146995855  0.18288798236928125  1.0000
  C   C5        1.0  0.03806314267232986  0.1253075373389284  0.9967397123761487  1.0000
  C   C6        1.0  0.46193696138424634  0.6253075945547261  0.003260262090423149  1.0000
  C   C7        1.0  0.9618919488623933  0.8747606838601331  0.003121812707274151  1.0000
  C   C8        1.0  0.5381078432516944  0.37476065490426674  0.9968781862842542  1.0000
  C   C9        1.0  0.9134318974572211  0.08796901718000379  0.8141447215573716  1.0000
  C   C10       1.0  0.5865679939760877  0.5879689781753666  0.18585506483004263  1.0000
  C   C11       1.0  0.08658306834952531  0.9120761877573152  0.1854287268506392  1.0000
  C   C12       1.0  0.41341679932234743  0.4120763229608819  0.8145710058810716  1.0000
  H   H1        1.0  0.845909080354078  0.1561655687129811  0.6686023763771448  1.0000
  H   H2        1.0  0.6540909841792474  0.6561656294778047  0.33139758580817896  1.0000
  H   H3        1.0  0.15415063506173188  0.8438273118011713  0.3305899183449602  1.0000
  H   H4        1.0  0.34584936782633074  0.3438272768254449  0.6694103095300482  1.0000
