data_cif

_audit_creation_method             'generated by GULP'

_symmetry_space_group_name_H-M     'P 1 21/A 1      '
_symmetry_Int_Tables_number        14
_symmetry_cell_setting             Monoclinic  

_cell_length_a                       9.779847
_cell_length_b                      11.268853
_cell_length_c                       3.831576
_cell_angle_alpha                   90.000000
_cell_angle_beta                    99.065977
_cell_angle_gamma                   90.000000

loop_
_atom_site_label
_atom_site_fract_x
_atom_site_fract_y
_atom_site_fract_z
_atom_site_occupancy
  Br3         0.09983      0.28118      0.04767  1.0000
  Br3         0.30718      0.06687      0.45639  1.0000
  C2          0.12942      0.02959      0.19543  1.0000
  C2          0.04370      0.11884      0.02180  1.0000
  C2          0.91474      0.08905      0.82582  1.0000
  H1          0.84918      0.15790      0.69001  1.0000
