# CIF file generated from CASTEP cell file
# https://gist.github.com/blake-armstrong/93facdde07a6e0a1ddb51857dd48e3f1
# Structure converted from CASTEP

data_structure

_cell_length_a    5.574241920131220
_cell_length_b    5.574241920131220
_cell_length_c    4.684863691493690
_cell_angle_alpha 90.000000000000000
_cell_angle_beta  90.000000000000000
_cell_angle_gamma 90.000000000000000

_symmetry_space_group_name_H-M 'P 1'
_symmetry_Int_Tables_number 1

loop_
_atom_site_label
_atom_site_type_symbol
_atom_site_fract_x
_atom_site_fract_y
_atom_site_fract_z
H1       H     0.260142060951261    0.760142060951261    0.283739032168827
H2       H     0.144135039068954    0.644135039068954   -0.037583938040543
H3       H    -0.144135039068954    0.355864960931046   -0.037583938040543
H4       H     0.760142060951261   -0.260142060951261    0.716260967831173
H5       H     0.644135039068953   -0.144135039068954    1.037583938040542
H6       H     0.239857939048739    0.260142060951261    0.716260967831173
H7       H     0.355864960931046    0.144135039068953    1.037583938040542
H8       H    -0.260142060951261    0.239857939048739    0.283739032168827
C1       C     0.000000000000000    0.500000000000000    0.329963161199952
C2       C     0.500000000000000    0.000000000000000    0.670036838800048
N1       N     0.146507847089692    0.646507847089692    0.179749123509073
N2       N    -0.146507847089692    0.353492152910309    0.179749123509073
N3       N     0.646507847089692   -0.146507847089692    0.820250876490927
N4       N     0.353492152910309    0.146507847089692    0.820250876490927
O1       O     0.000000000000000    0.500000000000000    0.601960207592579
O2       O     0.500000000000000   -0.000000000000000    0.398039792407421
