data_cif

_audit_creation_method             'generated by GULP'

_symmetry_space_group_name_H-M     'P -4 21 M       '
_symmetry_Int_Tables_number        113
_symmetry_cell_setting             Tetragonal  

_cell_length_a                       5.337357
_cell_length_b                       5.337357
_cell_length_c                       4.645032
_cell_angle_alpha                   90.000000
_cell_angle_beta                    90.000000
_cell_angle_gamma                   90.000000

loop_
_atom_site_label
_atom_site_fract_x
_atom_site_fract_y
_atom_site_fract_z
_atom_site_occupancy
  C2          0.00000      0.50000      0.33046  1.0000
  H1          0.26638      0.76638      0.27398  1.0000
  H1          0.13731      0.63731      0.95461  1.0000
  N4          0.14778      0.64778      0.17197  1.0000
  O3          0.00000      0.50000      0.59085  1.0000
