data_UREAXX22.b3lyp.6-311G**.dma4.-90.2182.1.4187
_audit_creation_method 'generated by cspy2.0'
_cell_length_a 5.4548
_cell_length_b 5.4539
_cell_length_c 4.7257
_cell_angle_alpha 90.0
_cell_angle_beta 90.1895
_cell_angle_gamma 90.0
loop_
_symmetry_equiv_pos_site_id
_symmetry_equiv_pos_as_xyz
1 +x,+y,+z
loop_
_atom_site_label
_atom_site_type_symbol
_atom_site_fract_x
_atom_site_fract_y
_atom_site_fract_z
_atom_site_occupancy
C1 C       0.999965820000       0.499997720000       0.330480360000       1.000000000000
C2 C       0.500290840000       0.999997720000       0.667078620000       1.000000000000
H1 H       1.246962820000       0.746904930000       0.281259910000       1.000000000000
H2 H       0.753497930000       0.253125810000       0.275804730000       1.000000000000
H3 H       1.131110340000       0.629872370000       0.047346460000       1.000000000000
H4 H       0.871719630000       0.370316480000       0.044478940000       1.000000000000
H5 H       0.253293840000       1.246904930000       0.716299100000       1.000000000000
H6 H       0.746758750000       0.753125810000       0.721754280000       1.000000000000
H7 H       0.369146320000       1.129872380000       0.950212530000       1.000000000000
H8 H       0.628537030000       0.870316480000       0.953080050000       1.000000000000
N1 N       1.148138760000       0.647578350000       0.187732560000       1.000000000000
N2 N       0.853263380000       0.352515210000       0.184472770000       1.000000000000
N3 N       0.352117920000       1.147578350000       0.809826440000       1.000000000000
N4 N       0.646993280000       0.852515210000       0.813086230000       1.000000000000
O1 O       0.998597400000       0.499906410000       0.599194420000       1.000000000000
O2 O       0.501659270000       0.999906410000       0.398364580000       1.000000000000
#END