data_image0
_chemical_formula_structural       C2H8N4O2
_chemical_formula_sum              "C2 H8 N4 O2"
_cell_length_a       5.661
_cell_length_b       5.661
_cell_length_c       4.712
_cell_angle_alpha    90.0
_cell_angle_beta     90.0
_cell_angle_gamma    90.0

_space_group_name_H-M_alt    "P 1"
_space_group_IT_number       1

loop_
  _space_group_symop_operation_xyz
  'x, y, z'

loop_
  _atom_site_type_symbol
  _atom_site_label
  _atom_site_symmetry_multiplicity
  _atom_site_fract_x
  _atom_site_fract_y
  _atom_site_fract_z
  _atom_site_occupancy
  C   C1        1.0  5.069106429239817e-08  0.5000001599706055  0.3312593084673902  1.0000
  C   C2        1.0  0.4999998988730067  1.3294284141028162e-07  0.6687395756436039  1.0000
  H   H1        1.0  0.2559181153343108  0.7556007266442726  0.2863196833535061  1.0000
  H   H2        1.0  0.24408197375706947  0.2556006214014163  0.713679980212205  1.0000
  H   H3        1.0  0.7440819073218934  0.24439938639028919  0.28631962029263325  1.0000
  H   H4        1.0  0.7559179799034444  0.7443993154361467  0.7136802957837045  1.0000
  H   H5        1.0  0.1427597101952155  0.6427000265324849  0.9660024530669067  1.0000
  H   H6        1.0  0.3572403766885996  0.14270005221996662  0.03399766128313653  1.0000
  H   H7        1.0  0.857240319114902  0.35729998808975905  0.9660023416646146  1.0000
  H   H8        1.0  0.6427597093421124  0.8572999212741107  0.03399773609795442  1.0000
  N   N1        1.0  0.1444440372530661  0.6439274621215547  0.1822189501253083  1.0000
  N   N2        1.0  0.3555558011308018  0.1439276452751672  0.8177811315400585  1.0000
  N   N3        1.0  0.8555558548152488  0.3560723107221424  0.18221927290250736  1.0000
  N   N4        1.0  0.644444301343433  0.8560721975317432  0.8177810689964704  1.0000
  O   O1        1.0  0.9999999788260314  0.49999991339298683  0.602182582646403  1.0000
  O   O2        1.0  0.4999999284038359  1.4475031383730728e-07  0.3978183684472585  1.0000
