data_CH2NO
_audit_creation_method 'chmpy python library version 1.0a1'
_cell_length_a 5.483925
_cell_length_b 5.483925
_cell_length_c 4.73215
_cell_angle_alpha 90.0
_cell_angle_beta 90.0
_cell_angle_gamma 90.0
loop_
_symmetry_equiv_pos_site_id
_symmetry_equiv_pos_as_xyz
                   1 -x,-y,+z
                   2 -y,+x,-z
                   3 +y,-x,-z
                   4 +x,+y,+z
                   5 1/2-x,1/2+y,-z
                   6 1/2-y,1/2-x,+z
                   7 1/2+y,1/2+x,+z
                   8 1/2+x,1/2-y,-z
loop_
_atom_site_label
_atom_site_type_symbol
_atom_site_fract_x
_atom_site_fract_y
_atom_site_fract_z
_atom_site_occupancy
C C       0.000000000000       0.500000000000       0.315781000000       1.000000000000
H H       0.270153000000       0.770153000000       0.262426000000       1.000000000000
H H       0.151683000000       0.651683000000      -0.054612000000       1.000000000000
N N       0.151664000000       0.651664000000       0.163394000000       1.000000000000
O O       0.000000000000       0.500000000000       0.579063000000       1.000000000000
#END