data_image0
_chemical_formula_structural       C2H8N4O2
_chemical_formula_sum              "C2 H8 N4 O2"
_cell_length_a       5.595107727365604
_cell_length_b       5.605580695241678
_cell_length_c       4.603614563903588
_cell_angle_alpha    90.00368733721128
_cell_angle_beta     90.03426053414138
_cell_angle_gamma    90.01159184178354

_space_group_name_H-M_alt    "P 1"
_space_group_IT_number       1

loop_
  _space_group_symop_operation_xyz
  'x, y, z'

loop_
  _atom_site_type_symbol
  _atom_site_label
  _atom_site_symmetry_multiplicity
  _atom_site_fract_x
  _atom_site_fract_y
  _atom_site_fract_z
  _atom_site_occupancy
  C   C1        1.0  3.6864815617159346e-05  0.4999266011434926  0.3360723275528534  1.0000
  C   C2        1.0  0.4997859003867077  4.67959120369537e-06  0.6638509867554696  1.0000
  H   H1        1.0  0.26841119666933744  0.7500251177741507  0.28731022775841625  1.0000
  H   H2        1.0  0.25100220406491175  0.2692831477770553  0.7126439701459018  1.0000
  H   H3        1.0  0.7315769103264487  0.24999334170025578  0.28737814201867684  1.0000
  H   H4        1.0  0.7493559843208911  0.7314287998500025  0.7127460649201585  1.0000
  H   H5        1.0  0.14660933681215751  0.6325120738536982  0.9609955091323883  1.0000
  H   H6        1.0  0.3677620621707598  0.1469311166641007  0.03900793004614078  1.0000
  H   H7        1.0  0.8532374636991771  0.36684890514290425  0.9609154897656356  1.0000
  H   H8        1.0  0.6325059617235491  0.8535459273073377  0.03904938597557761  1.0000
  N   N1        1.0  0.15490984993265233  0.6339880164259455  0.18380853629214997  1.0000
  N   N2        1.0  0.3664598561827784  0.15534091299072714  0.816241782417937  1.0000
  N   N3        1.0  0.8455845301546483  0.36529161661034654  0.1837163699269832  1.0000
  N   N4        1.0  0.6333389090449585  0.8447648820068173  0.8163122075274629  1.0000
  O   O1        1.0  0.9997203494409099  0.5001941708537051  0.6129446295135913  1.0000
  O   O2        1.0  0.4997020810678909  0.999920351368434  0.38700798174837103  1.0000
