data_image0
_chemical_formula_structural       O6C12H12C12H6C6H6C6H6C6H6C24H6C6H6C12H6C6H6C6H18C6H18C6H18O6H6
_chemical_formula_sum              "O12 C108 H120"
_cell_length_a       15.989107973172791
_cell_length_b       15.989107973172795
_cell_length_c       15.989107973172793
_cell_angle_alpha    114.96563584430419
_cell_angle_beta     114.96563584430416
_cell_angle_gamma    114.96563584430419

_space_group_name_H-M_alt    "P 1"
_space_group_IT_number       1

loop_
  _space_group_symop_operation_xyz
  'x, y, z'

loop_
  _atom_site_type_symbol
  _atom_site_label
  _atom_site_symmetry_multiplicity
  _atom_site_fract_x
  _atom_site_fract_y
  _atom_site_fract_z
  _atom_site_occupancy
  O   O1        1.0  0.4513422284145345  0.5391762058729214  0.8860704865710224  1.0000
  O   O2        1.0  0.539176170827723  0.8860704837659183  0.45134222390020273  1.0000
  O   O3        1.0  0.8860705431136702  0.4513422598193993  0.5391762199358295  1.0000
  O   O4        1.0  0.11368824008730948  0.5486138426479823  0.46075838352122017  1.0000
  O   O5        1.0  0.4607584100996204  0.11368827269149115  0.5486138619281778  1.0000
  O   O6        1.0  0.5486139102211182  0.4607584180686621  0.11368828225011766  1.0000
  C   C1        1.0  0.47995884364771785  0.48272618961207225  0.8175529132767576  1.0000
  C   C2        1.0  0.4827262046377446  0.8175529430871138  0.47995886426126005  1.0000
  C   C3        1.0  0.8175529396264424  0.4799588305105221  0.4827261854385394  1.0000
  C   C4        1.0  0.18224334836139747  0.5199729532542284  0.5171416390875456  1.0000
  C   C5        1.0  0.5171416467677971  0.18224333247556562  0.519972923504244  1.0000
  C   C6        1.0  0.519972998039793  0.5171416881144059  0.18224336485387893  1.0000
  C   C7        1.0  0.42286267798500826  0.3523708602619862  0.7763197404822377  1.0000
  C   C8        1.0  0.35237083310285205  0.776319666406666  0.4228625957557793  1.0000
  C   C9        1.0  0.7763196758058502  0.42286258744790167  0.35237081919220054  1.0000
  C   C10       1.0  0.22366001024150858  0.5771629870163887  0.6475689868351432  1.0000
  C   C11       1.0  0.6475690322609146  0.22366004231347864  0.57716300304399  1.0000
  C   C12       1.0  0.5771629961825996  0.6475690196333225  0.22366003751638844  1.0000
  H   H1        1.0  0.4777194486514218  0.38017580686504726  0.8700463547501575  1.0000
  H   H2        1.0  0.3801757447292732  0.8700462496198046  0.47771940209526  1.0000
  H   H3        1.0  0.8700462565094795  0.47771939634574356  0.3801757496244221  1.0000
  H   H4        1.0  0.12997862117575337  0.5223111319701551  0.6198422308320493  1.0000
  H   H5        1.0  0.6198422235767792  0.1299785967429463  0.5223111070608539  1.0000
  H   H6        1.0  0.5223110868405113  0.6198421942316364  0.1299785632296802  1.0000
  H   H7        1.0  0.4469202487227064  0.31176540261893826  0.7278633077009404  1.0000
  H   H8        1.0  0.31176541315060263  0.727863370367071  0.4469202519144904  1.0000
  H   H9        1.0  0.7278633857791096  0.4469202360657137  0.311765419492945  1.0000
  H   H10       1.0  0.2721569406285066  0.5531318707011398  0.6881812418226412  1.0000
  H   H11       1.0  0.6881811984739571  0.2721569125774524  0.5531318616145153  1.0000
  H   H12       1.0  0.553131816211844  0.6881811552714624  0.2721568799415824  1.0000
  C   C13       1.0  0.26999124619857195  0.24188457581210043  0.6853942295509103  1.0000
  C   C14       1.0  0.24188455408666532  0.6853942384206698  0.26999122840322703  1.0000
  C   C15       1.0  0.6853942119462698  0.2699911860065022  0.24188447865578883  1.0000
  C   C16       1.0  0.31461444987385845  0.7300177018623651  0.7580601433272267  1.0000
  C   C17       1.0  0.7580602338307487  0.31461453115598725  0.7300177983762169  1.0000
  C   C18       1.0  0.7300177611208364  0.7580601826457776  0.31461446452552055  1.0000
  C   C19       1.0  0.11808710329918104  0.23554300378542098  0.7062340348852306  1.0000
  C   C20       1.0  0.23554290681455864  0.7062339647533746  0.11808707827857756  1.0000
  C   C21       1.0  0.7062339057441823  0.11808705242247582  0.23554277375480343  1.0000
  C   C22       1.0  0.2939820563133319  0.8820828637493192  0.7645496130406171  1.0000
  C   C23       1.0  0.764549747446853  0.2939821229533906  0.8820829297187135  1.0000
  C   C24       1.0  0.882082974501458  0.7645496957895841  0.2939821185246846  1.0000
  H   H13       1.0  0.04696084396207257  0.12637295028790105  0.635148260494698  1.0000
  H   H14       1.0  0.1263730327783728  0.6351483073124401  0.046960910614707425  1.0000
  H   H15       1.0  0.6351483617951589  0.04696093482840185  0.1263730547592158  1.0000
  H   H16       1.0  0.3652014530159562  0.9532638411023743  0.8737378132500809  1.0000
  H   H17       1.0  0.8737377402082706  0.36520145456166936  0.9532638209533345  1.0000
  H   H18       1.0  0.9532637577933241  0.873737712808064  0.36520140591875666  1.0000
  C   C25       1.0  0.08682670061636034  0.2956916066579739  0.7579023099934712  1.0000
  C   C26       1.0  0.2956916762502763  0.757902399203574  0.0868266232017206  1.0000
  C   C27       1.0  0.7579025440572013  0.0868268314980644  0.29569187413311826  1.0000
  C   C28       1.0  0.242325211417559  0.9133912982592736  0.7044708444767895  1.0000
  C   C29       1.0  0.7044708039170269  0.24232523639490797  0.913391332577039  1.0000
  C   C30       1.0  0.9133911766165891  0.7044707103759925  0.24232517155988026  1.0000
  H   H19       1.0  0.9924846077316196  0.23370619990059827  0.7264396032801803  1.0000
  H   H20       1.0  0.2337061546535356  0.7264396070543725  0.9924845941390961  1.0000
  H   H21       1.0  0.7264395926694633  0.9924845854776421  0.23370615745845966  1.0000
  H   H22       1.0  0.27391520194173247  0.007801714078262023  0.766523157760767  1.0000
  H   H23       1.0  0.7665231845619198  0.2739151829153405  0.00780171695502907  1.0000
  H   H24       1.0  0.007801759113164941  0.7665231863846815  0.27391522038926314  1.0000
  C   C31       1.0  0.1778760085930181  0.4358008973066585  0.8504424510062508  1.0000
  C   C32       1.0  0.43580080051086834  0.8504423476457632  0.17787611539072082  1.0000
  C   C33       1.0  0.8504423027173584  0.17787599289186698  0.4358006851320004  1.0000
  C   C34       1.0  0.14964214991131708  0.8223003271687028  0.5643442260986234  1.0000
  C   C35       1.0  0.5643443132822965  0.1496422036570537  0.8223004031631039  1.0000
  C   C36       1.0  0.8223005875623125  0.564344398885369  0.1496422624076926  1.0000
  H   H25       1.0  0.15630582097139406  0.485730402511665  0.8928194169294416  1.0000
  H   H26       1.0  0.4857303610286521  0.8928193813441384  0.15630578310829873  1.0000
  H   H27       1.0  0.8928194580523802  0.15630580170851757  0.4857304115061599  1.0000
  H   H28       1.0  0.10726296906725404  0.8439128009812166  0.5144806904211167  1.0000
  H   H29       1.0  0.5144806921709697  0.10726303115823732  0.8439127799876206  1.0000
  H   H30       1.0  0.8439127741322605  0.5144806977033753  0.10726302497320289  1.0000
  C   C37       1.0  0.2981551618790483  0.5130812661352526  0.8901301440812224  1.0000
  C   C38       1.0  0.5130813836947683  0.8901302173977657  0.2981551640807661  1.0000
  C   C39       1.0  0.8901303518947501  0.2981552073045623  0.513081492642593  1.0000
  C   C40       1.0  0.10979758885575149  0.7019364725627296  0.48699416047667765  1.0000
  C   C41       1.0  0.4869940028089941  0.10979753054683063  0.7019363457801663  1.0000
  C   C42       1.0  0.7019362310269291  0.4869938905456083  0.10979748134488594  1.0000
  H   H31       1.0  0.3717627510056447  0.6227238946860095  0.9646162764441909  1.0000
  H   H32       1.0  0.6227239060057617  0.9646162954904782  0.37176277728222373  1.0000
  H   H33       1.0  0.964616232442653  0.37176268373942123  0.6227237890619608  1.0000
  H   H34       1.0  0.03521006401250345  0.6283195384015263  0.3773452552145041  1.0000
  H   H35       1.0  0.3773452682244675  0.03521007139153452  0.6283195366893316  1.0000
  H   H36       1.0  0.6283195145481284  0.37734522544830906  0.03521003892657441  1.0000
  C   C43       1.0  0.3285362489488985  0.4516503813492929  0.8365761083323247  1.0000
  C   C44       1.0  0.45165019909339216  0.8365759341000937  0.32853621469883154  1.0000
  C   C45       1.0  0.8365758087164251  0.32853611279128214  0.45165004005698745  1.0000
  C   C46       1.0  0.16335695225805902  0.6715143221477825  0.548355349696433  1.0000
  C   C47       1.0  0.5483554666468033  0.16335706412984705  0.6715143928609556  1.0000
  C   C48       1.0  0.6715144050259148  0.5483554937737265  0.16335705598370553  1.0000
  C   C49       1.0  0.2378200018836715  0.3104376124234641  0.7425927560571459  1.0000
  C   C50       1.0  0.310437615036968  0.7425928109100833  0.23782002409572903  1.0000
  C   C51       1.0  0.7425928971194842  0.23782007022237947  0.31043772125862634  1.0000
  C   C52       1.0  0.2574966211740176  0.7622733001851457  0.6895851335201285  1.0000
  C   C53       1.0  0.6895850730045422  0.2574966063697563  0.7622731858561228  1.0000
  C   C54       1.0  0.7622731955964918  0.68958502690645  0.257496597230019  1.0000
  C   C55       1.0  0.1836751593288678  0.1623422044650503  0.5363174465552051  1.0000
  C   C56       1.0  0.1623421200689878  0.5363173862389305  0.1836751973751898  1.0000
  C   C57       1.0  0.5363174498065503  0.18367516942244339  0.16234215974297747  1.0000
  C   C58       1.0  0.4637026902346382  0.8162975094958412  0.8376016549568878  1.0000
  C   C59       1.0  0.837601656450468  0.4637027176567738  0.8162976123952052  1.0000
  C   C60       1.0  0.8162975173721635  0.8376016012458393  0.46370267897438694  1.0000
  C   C61       1.0  0.2011380258346322  0.09439848749094433  0.4674581010228267  1.0000
  C   C62       1.0  0.09439857587189021  0.467458144038035  0.20113796156095481  1.0000
  C   C63       1.0  0.46745812082152305  0.2011379791016171  0.0943985209723439  1.0000
  C   C64       1.0  0.5325738602681725  0.7988509273647634  0.9055507716295907  1.0000
  C   C65       1.0  0.9055508992295114  0.5325739751061688  0.7988509380776588  1.0000
  C   C66       1.0  0.7988509314658869  0.9055507691022805  0.5325738445988958  1.0000
  H   H37       1.0  0.2746543646944972  0.09594826481555803  0.5178602633869046  1.0000
  H   H38       1.0  0.09594822552899937  0.5178602307751199  0.2746543505351147  1.0000
  H   H39       1.0  0.5178602307465096  0.2746543323718673  0.0959482253093414  1.0000
  H   H40       1.0  0.4821513603851633  0.7252744746896833  0.903936747456097  1.0000
  H   H41       1.0  0.9039367403314004  0.4821513868769679  0.7252744686559429  1.0000
  H   H42       1.0  0.7252744625148058  0.903936760241215  0.48215139302224685  1.0000
  C   C67       1.0  0.1285427809508302  0.025656143814460186  0.3343630095590959  1.0000
  C   C68       1.0  0.025656108833431283  0.33436299063878727  0.12854281532651438  1.0000
  C   C69       1.0  0.3343630559616456  0.12854281033986276  0.025656156453114056  1.0000
  C   C70       1.0  0.6656879204666771  0.8714758588052643  0.9743227679388972  1.0000
  C   C71       1.0  0.9743226345366494  0.6656878697472887  0.8714758324506943  1.0000
  C   C72       1.0  0.8714757582024062  0.9743227065460193  0.6656878710250818  1.0000
  H   H43       1.0  0.14521384625179343  0.9748577805249029  0.2841551534510768  1.0000
  H   H44       1.0  0.9748578506787678  0.2841551351897315  0.14521381219569746  1.0000
  H   H45       1.0  0.284155163395575  0.1452138643547654  0.9748578214243624  1.0000
  H   H46       1.0  0.7158973326931594  0.8547838399474397  0.02508789573467416  1.0000
  H   H47       1.0  0.025087971231045277  0.7158974039524252  0.8547838327977317  1.0000
  H   H48       1.0  0.854783849521801  0.02508796140269977  0.7158973501513297  1.0000
  C   C73       1.0  0.03530179878717953  0.023140217156340598  0.26570329530813025  1.0000
  C   C74       1.0  0.023140284203393733  0.26570330676119075  0.035301634823130555  1.0000
  C   C75       1.0  0.26570329679621246  0.035301674140233275  0.023140229811168374  1.0000
  C   C76       1.0  0.7343584753042692  0.9647698214533308  0.9769047266887371  1.0000
  C   C77       1.0  0.9769047024397424  0.7343584861604199  0.9647697599695618  1.0000
  C   C78       1.0  0.9647698010686461  0.9769046822830948  0.7343584612014897  1.0000
  C   C79       1.0  0.013204899758365854  0.08641009284905525  0.33046950386016066  1.0000
  C   C80       1.0  0.08641005900895626  0.33046951076075154  0.01320499984964166  1.0000
  C   C81       1.0  0.33046962482948605  0.013205052340234032  0.08641009470666053  1.0000
  C   C82       1.0  0.6695520418644134  0.9867990103467564  0.9135684865255179  1.0000
  C   C83       1.0  0.9135684813785643  0.66955204439429  0.9867991305286248  1.0000
  C   C84       1.0  0.9867989799066988  0.9135685214709167  0.6695520730417787  1.0000
  H   H49       1.0  0.9398900953222581  0.08415520707546936  0.27789313671132726  1.0000
  H   H50       1.0  0.08415520008459877  0.27789315290071853  0.9398900520387329  1.0000
  H   H51       1.0  0.27789310758246927  0.9398900121617324  0.08415517680918677  1.0000
  H   H52       1.0  0.7221200664243671  0.06014291512469248  0.915851050556348  1.0000
  H   H53       1.0  0.9158510097648815  0.7221200542617189  0.060142923210808684  1.0000
  H   H54       1.0  0.06014289998225751  0.9158510379251323  0.7221201127848481  1.0000
  C   C85       1.0  0.08704137882450917  0.15498581064237466  0.4637615311688006  1.0000
  C   C86       1.0  0.1549857907283998  0.46376143730964187  0.08704127596200441  1.0000
  C   C87       1.0  0.4637614650701517  0.08704131453411977  0.15498578404831775  1.0000
  C   C88       1.0  0.5362338398842664  0.9129093607540498  0.8449268006107923  1.0000
  C   C89       1.0  0.8449267576746611  0.5362338896990976  0.9129092983830261  1.0000
  C   C90       1.0  0.9129092754982262  0.8449267134256646  0.5362338577492913  1.0000
  H   H55       1.0  0.06976150248641247  0.2061335268986128  0.5124928834076906  1.0000
  H   H56       1.0  0.2061334730069803  0.5124928579307143  0.06976149425201157  1.0000
  H   H57       1.0  0.5124928922644914  0.06976149637336838  0.20613348901897266  1.0000
  H   H58       1.0  0.48750832701576485  0.9301741167599349  0.7937518659689032  1.0000
  H   H59       1.0  0.7937518234344839  0.48750828265553153  0.9301741611206749  1.0000
  H   H60       1.0  0.930174127717711  0.7937518594987781  0.4875083145311131  1.0000
  C   C91       1.0  0.24483074400231988  0.1437715788783309  0.6958653963862682  1.0000
  C   C92       1.0  0.1437714785917704  0.6958652978304763  0.24483067208535286  1.0000
  C   C93       1.0  0.6958654260253103  0.24483073973375152  0.14377153863596237  1.0000
  C   C94       1.0  0.3042439898900323  0.7552585252827289  0.8562654225893435  1.0000
  C   C95       1.0  0.8562653572193881  0.3042439835946203  0.75525847148466  1.0000
  C   C96       1.0  0.7552584799119645  0.8562653591939227  0.30424399982955813  1.0000
  H   H61       1.0  0.2811931776333943  0.1049130493735898  0.6685221842027718  1.0000
  H   H62       1.0  0.10491303321790298  0.6685221687845294  0.2811931730044787  1.0000
  H   H63       1.0  0.6685221607098876  0.28119319156062605  0.10491303263324787  1.0000
  H   H64       1.0  0.331691363095936  0.7189759218871608  0.895177732552022  1.0000
  H   H65       1.0  0.8951776992543021  0.33169136023862256  0.7189759035647509  1.0000
  H   H66       1.0  0.7189759093041479  0.8951776966162146  0.3316913244410202  1.0000
  H   H67       1.0  0.13740983940247042  0.057135625962007525  0.6288483392335057  1.0000
  H   H68       1.0  0.057135587852261374  0.6288483065485466  0.13740979552540114  1.0000
  H   H69       1.0  0.6288483393711088  0.13740981710895894  0.05713560612888571  1.0000
  H   H70       1.0  0.37123060259797686  0.8626843620106837  0.9428350130135734  1.0000
  H   H71       1.0  0.9428350253364391  0.37123065909000136  0.8626843923133246  1.0000
  H   H72       1.0  0.8626842740458854  0.9428349100787453  0.3712305505229363  1.0000
  H   H73       1.0  0.29998058398243915  0.19698541472190012  0.8001110336008118  1.0000
  H   H74       1.0  0.1969853897659688  0.8001109897440832  0.2999805800926006  1.0000
  H   H75       1.0  0.8001110117284223  0.2999805656842835  0.19698539835992737  1.0000
  H   H76       1.0  0.20000404888843584  0.7000807045378121  0.8030903402091445  1.0000
  H   H77       1.0  0.8030903756559978  0.20000409854434875  0.7000807171532006  1.0000
  H   H78       1.0  0.7000807331373633  0.8030903449656058  0.20000407512883625  1.0000
  C   C97       1.0  0.6334188761549698  0.5887903027268503  0.9237404129294067  1.0000
  C   C98       1.0  0.5887902851252195  0.9237404043637131  0.6334188481086044  1.0000
  C   C99       1.0  0.9237404237132816  0.6334188565180761  0.5887903211982349  1.0000
  C   C100      1.0  0.07596316685601238  0.36650608766342613  0.41110088651167725  1.0000
  C   C101      1.0  0.411100896905563  0.07596314130995019  0.36650609261628014  1.0000
  C   C102      1.0  0.3665061411808345  0.4111009007793278  0.0759632064032557  1.0000
  H   H79       1.0  0.6636342523331247  0.5558290362130038  0.8793574518361714  1.0000
  H   H80       1.0  0.5558290004766124  0.879357437297635  0.6636342227385844  1.0000
  H   H81       1.0  0.8793574645559453  0.6636342116499291  0.5558290094929856  1.0000
  H   H82       1.0  0.12031467751374138  0.3362183446162269  0.44394806452257757  1.0000
  H   H83       1.0  0.4439481076133812  0.12031468930847317  0.33621832916901134  1.0000
  H   H84       1.0  0.33621829650950463  0.44394803701717983  0.12031462940305591  1.0000
  H   H85       1.0  0.675860599910031  0.6046694688689148  0.010225901638633017  1.0000
  H   H86       1.0  0.6046694963802012  0.010225927381236177  0.6758606143066722  1.0000
  H   H87       1.0  0.010225819050589724  0.6758606019525906  0.6046694579321187  1.0000
  H   H88       1.0  0.9895978370807818  0.324180029863048  0.39541219226114793  1.0000
  H   H89       1.0  0.3954121776137654  0.9895978569134773  0.32418006075484446  1.0000
  H   H90       1.0  0.3241800317945509  0.3954121922925976  0.9895978389300523  1.0000
  H   H91       1.0  0.6770711250340107  0.6854485121303049  0.9599990001913637  1.0000
  H   H92       1.0  0.6854484589765037  0.959998998221069  0.6770711376717461  1.0000
  H   H93       1.0  0.959999004411076  0.677071132951302  0.6854484921024342  1.0000
  H   H94       1.0  0.03956044434141645  0.32282427128344615  0.31438480803788443  1.0000
  H   H95       1.0  0.314384791932703  0.03956042363320347  0.3228242414691931  1.0000
  H   H96       1.0  0.3228242011895914  0.31438476166683405  0.03956038371692263  1.0000
  C   C103      1.0  0.4231342726169061  0.4663388544982952  0.70058859323714  1.0000
  C   C104      1.0  0.4663388253740168  0.7005885598968365  0.4231342867748871  1.0000
  C   C105      1.0  0.7005886200708699  0.4231342854841703  0.4663388436576076  1.0000
  C   C106      1.0  0.2991006802294785  0.576716579495311  0.5333560307059187  1.0000
  C   C107      1.0  0.5333560217039383  0.2991006782525789  0.576716552150838  1.0000
  C   C108      1.0  0.5767165215975967  0.5333559848284198  0.29910064025511973  1.0000
  H   H97       1.0  0.4360000963893021  0.4181034256374673  0.6418084579810811  1.0000
  H   H98       1.0  0.41810339560473525  0.6418084316087714  0.43600010752650903  1.0000
  H   H99       1.0  0.6418084048160987  0.43600005584367146  0.41810336755499616  1.0000
  H   H100      1.0  0.3580031386077692  0.5640036195661663  0.5817070303681395  1.0000
  H   H101      1.0  0.5817070478088084  0.3580031435624102  0.5640036189852559  1.0000
  H   H102      1.0  0.5640035754117139  0.5817069740648787  0.3580030959288225  1.0000
  H   H103      1.0  0.47708106946706863  0.566050393500674  0.7407496794930735  1.0000
  H   H104      1.0  0.5660503712588698  0.7407496890267994  0.47708106122849947  1.0000
  H   H105      1.0  0.7407496721957705  0.47708105633850495  0.5660503324678755  1.0000
  H   H106      1.0  0.25885937282956734  0.5226700839352986  0.43360415856208834  1.0000
  H   H107      1.0  0.43360412179972746  0.25885937493368416  0.5226700731823983  1.0000
  H   H108      1.0  0.5226700351795223  0.433604084424805  0.2588593443767148  1.0000
  H   H109      1.0  0.3151776263729673  0.4036874292148762  0.6316489104231438  1.0000
  H   H110      1.0  0.40368743890286457  0.6316489042943911  0.31517762858983417  1.0000
  H   H111      1.0  0.6316489219571052  0.3151776357671801  0.40368743291698206  1.0000
  H   H112      1.0  0.3679755482699222  0.6846476600585779  0.5959038757695052  1.0000
  H   H113      1.0  0.5959038534923724  0.3679755492012682  0.684647624659575  1.0000
  H   H114      1.0  0.6846476301123363  0.5959038646492248  0.3679755402923432  1.0000
  O   O7        1.0  0.9636388960034727  0.9600046977067174  0.13530430003662533  1.0000
  O   O8        1.0  0.9600047392115713  0.13530429084628584  0.9636389091771871  1.0000
  O   O9        1.0  0.13530425334779123  0.9636389317054007  0.9600047138119943  1.0000
  O   O10       1.0  0.8648634955191692  0.03665024264611207  0.04025222003360653  1.0000
  O   O11       1.0  0.04025219760246115  0.8648634714288855  0.036650276133769526  1.0000
  O   O12       1.0  0.036650293590911244  0.040252294463028165  0.8648636067084027  1.0000
  H   H115      1.0  0.9931844651055751  0.9255962437239813  0.10185462698053417  1.0000
  H   H116      1.0  0.9255962541812366  0.1018546443436156  0.9931844486712792  1.0000
  H   H117      1.0  0.10185459124377957  0.9931844713832032  0.9255962687786842  1.0000
  H   H118      1.0  0.8982734953496939  0.0070104618096816325  0.07452500331738753  1.0000
  H   H119      1.0  0.07452498923132528  0.8982734366192203  0.007010438756492568  1.0000
  H   H120      1.0  0.007010447473292617  0.0745249951169629  0.8982734222679616  1.0000
