data_image0
_chemical_formula_structural       O6C12H12C12H6C6H6C6H6C6H6C24H6C6H6C12H6C6H6C6H18C6H18C6H18O6H6
_chemical_formula_sum              "O12 C108 H120"
_cell_length_a       15.999730213469258
_cell_length_b       16.002425161203067
_cell_length_c       16.020309773348853
_cell_angle_alpha    114.83830728579495
_cell_angle_beta     114.90291294369428
_cell_angle_gamma    114.73536960582625

_space_group_name_H-M_alt    "P 1"
_space_group_IT_number       1

loop_
  _space_group_symop_operation_xyz
  'x, y, z'

loop_
  _atom_site_type_symbol
  _atom_site_label
  _atom_site_symmetry_multiplicity
  _atom_site_fract_x
  _atom_site_fract_y
  _atom_site_fract_z
  _atom_site_occupancy
  O   O1        1.0  0.44112294128706897  0.5277384514472077  0.8717399264936586  1.0000
  O   O2        1.0  0.5306744387026022  0.8744992093344569  0.44527587368635574  1.0000
  O   O3        1.0  0.8728039603764857  0.443029298909155  0.5287580818589601  1.0000
  O   O4        1.0  0.12817063081669242  0.5580171573470601  0.47126758105126154  1.0000
  O   O5        1.0  0.4699051530648833  0.12639470017633186  0.5551947411615026  1.0000
  O   O6        1.0  0.5577433258030152  0.47147616545770543  0.12750984907604826  1.0000
  C   C1        1.0  0.47051209368257807  0.4733036164211182  0.8046332663885193  1.0000
  C   C2        1.0  0.4749609984206632  0.805918634637307  0.4729180803622916  1.0000
  C   C3        1.0  0.8045409500655755  0.47130135740439844  0.47351202313221213  1.0000
  C   C4        1.0  0.19542923011475677  0.528893683347234  0.5262864347979733  1.0000
  C   C5        1.0  0.5257482050307911  0.19459339706489628  0.5273768650642249  1.0000
  C   C6        1.0  0.5289530827720585  0.526175774586521  0.19528393201284466  1.0000
  C   C7        1.0  0.4162214099328071  0.34505556841308604  0.7649081846238022  1.0000
  C   C8        1.0  0.34581317090766933  0.7651281606534899  0.4167248711632641  1.0000
  C   C9        1.0  0.7643142632000731  0.41622987397229916  0.3449268291991932  1.0000
  C   C10       1.0  0.23532936345741615  0.5839041625810152  0.654714479299075  1.0000
  C   C11       1.0  0.6549106849392287  0.2353145102332708  0.5838126239338729  1.0000
  C   C12       1.0  0.5834806347693708  0.654633140022577  0.23535985568954373  1.0000
  H   H1        1.0  0.4700815899840485  0.37163447599684984  0.8579013905663143  1.0000
  H   H2        1.0  0.37158876867507074  0.8576718406269949  0.4700807022434126  1.0000
  H   H3        1.0  0.8572186659523375  0.4700488349912874  0.3713513473458099  1.0000
  H   H4        1.0  0.1423268972991157  0.5303679057654529  0.6281576840530187  1.0000
  H   H5        1.0  0.6290122218371952  0.14267656687270364  0.5306296664791056  1.0000
  H   H6        1.0  0.5294351881507694  0.6281772240608977  0.14244278609566896  1.0000
  H   H7        1.0  0.4418618539315637  0.306290860653634  0.7170566457453965  1.0000
  H   H8        1.0  0.30619460505084506  0.7165644536731318  0.44140231452039863  1.0000
  H   H9        1.0  0.7158204885930741  0.44118928749911956  0.3055194751007494  1.0000
  H   H10       1.0  0.283377062337308  0.5585303752095728  0.6939226449483249  1.0000
  H   H11       1.0  0.6946211293538876  0.28363018886364955  0.5590076282271493  1.0000
  H   H12       1.0  0.5582621572405346  0.6936544627529639  0.2836498868579286  1.0000
  C   C13       1.0  0.26596376275114453  0.23610420032154145  0.6752127063645854  1.0000
  C   C14       1.0  0.23812646412480076  0.6758928171341194  0.2664228082415796  1.0000
  C   C15       1.0  0.6752111602126591  0.2660943484471902  0.2366639848631482  1.0000
  C   C16       1.0  0.32477140747910904  0.7340932602894822  0.7631441218006889  1.0000
  C   C17       1.0  0.7625261137937744  0.3247656064232129  0.734165444893523  1.0000
  C   C18       1.0  0.73373515136998  0.7632491074138804  0.32467537720645995  1.0000
  C   C19       1.0  0.1158797444228298  0.2282769075714438  0.6987776929795542  1.0000
  C   C20       1.0  0.23292339248897592  0.6999181458574669  0.11745862180122497  1.0000
  C   C21       1.0  0.6996589346129196  0.11689126665890756  0.23037218501622364  1.0000
  C   C22       1.0  0.2999700626339104  0.8831822276944973  0.7696620939142294  1.0000
  C   C23       1.0  0.7674300471478429  0.3004109688806597  0.8828413890501186  1.0000
  C   C24       1.0  0.8836643344308102  0.7704768809498651  0.3010706168849776  1.0000
  H   H13       1.0  0.04688911416112169  0.12004332126986833  0.628918467750909  1.0000
  H   H14       1.0  0.12437533956038861  0.6290592348790068  0.04689634157645689  1.0000
  H   H15       1.0  0.6295037510624519  0.047342078351092345  0.12203651865213684  1.0000
  H   H16       1.0  0.36999684225583407  0.9526577990393719  0.8779862718556138  1.0000
  H   H17       1.0  0.8759960904065812  0.3713294901310613  0.9534801103301591  1.0000
  H   H18       1.0  0.9532333583803508  0.8788246447445743  0.37153517707611844  1.0000
  C   C25       1.0  0.08470488707519094  0.2869732767091689  0.7518666098841276  1.0000
  C   C26       1.0  0.29300876777798057  0.753873752646805  0.08775317808779914  1.0000
  C   C27       1.0  0.7530454812275267  0.08628229731423834  0.2897771686945955  1.0000
  C   C28       1.0  0.24630839734998436  0.9136275033024134  0.7102391923132361  1.0000
  C   C29       1.0  0.7071592253774193  0.24619919239081428  0.9123008065406425  1.0000
  C   C30       1.0  0.914341136525429  0.7114392104469011  0.24747586204148442  1.0000
  H   H19       1.0  0.9921895598365386  0.22508031065207465  0.7229308676234956  1.0000
  H   H20       1.0  0.23191020891339914  0.7246816044350903  0.9948838298216772  1.0000
  H   H21       1.0  0.7242379483745144  0.9937332482507385  0.228411147074825  1.0000
  H   H22       1.0  0.2749045473532764  0.006029009401175234  0.7716462141454413  1.0000
  H   H23       1.0  0.7681258315093049  0.2751431596918166  0.005032099533057499  1.0000
  H   H24       1.0  0.006941716104528428  0.7731455095517767  0.27649333004325993  1.0000
  C   C31       1.0  0.1733401054944486  0.4250440121697533  0.8431137491957686  1.0000
  C   C32       1.0  0.4314821096060326  0.8464837862999472  0.17834305262844627  1.0000
  C   C33       1.0  0.8445200145571415  0.1755466164479157  0.42797718278823815  1.0000
  C   C34       1.0  0.1550475584558133  0.8245428010766215  0.5720841786444469  1.0000
  C   C35       1.0  0.5686883613535104  0.15371924586981736  0.821661995549698  1.0000
  C   C36       1.0  0.8251364699929411  0.5732563420517671  0.15564393218098013  1.0000
  H   H25       1.0  0.15194059231075713  0.47420932189834675  0.8872982791567829  1.0000
  H   H26       1.0  0.4817579438334202  0.8913202577998768  0.15809860641426707  1.0000
  H   H27       1.0  0.8888423425990264  0.15455316768072705  0.47773129981600715  1.0000
  H   H28       1.0  0.11053178251101721  0.8454944186602791  0.5224337577903733  1.0000
  H   H29       1.0  0.5182416171470596  0.10858544429177266  0.8416334449491543  1.0000
  H   H30       1.0  0.8461805448998461  0.52385945028527  0.11107747861774393  1.0000
  C   C37       1.0  0.2910217639980449  0.5017857152161024  0.8798727200654912  1.0000
  C   C38       1.0  0.5072101375484681  0.88371889767227  0.29652277737934796  1.0000
  C   C39       1.0  0.8813671766013033  0.2933999206129546  0.5041470967106678  1.0000
  C   C40       1.0  0.11873856163639036  0.7070400858654932  0.4958921912259082  1.0000
  C   C41       1.0  0.4931527247513316  0.11695775594823989  0.7037671865337747  1.0000
  C   C42       1.0  0.7073593852874717  0.49672798656501904  0.11876742462902914  1.0000
  H   H31       1.0  0.3626531957670872  0.6104349598198489  0.9528732634410968  1.0000
  H   H32       1.0  0.6161594972971363  0.958102500824808  0.36987307061148966  1.0000
  H   H33       1.0  0.9546051279204559  0.3655558829523296  0.6128739908253695  1.0000
  H   H34       1.0  0.045712363732986025  0.6351227805020024  0.3871843354696289  1.0000
  H   H35       1.0  0.3842261859932624  0.04285696366423734  0.6304893042329409  1.0000
  H   H36       1.0  0.6353946276054654  0.3880148085249566  0.045328598706520375  1.0000
  C   C43       1.0  0.32160833644803133  0.4418480232382226  0.8253378332914284  1.0000
  C   C44       1.0  0.4458155497877027  0.8280292885995983  0.32546357645412777  1.0000
  C   C45       1.0  0.8264967947788786  0.32342267996090796  0.44347428389874033  1.0000
  C   C46       1.0  0.17393055236160948  0.6772296783060701  0.5565929151658656  1.0000
  C   C47       1.0  0.5547130103749781  0.17281683350853475  0.6750161630676809  1.0000
  C   C48       1.0  0.6772589346626524  0.5570474206788203  0.17380987929504543  1.0000
  C   C49       1.0  0.23322516067729118  0.3027332911892522  0.7327133957146685  1.0000
  C   C50       1.0  0.30630728297326737  0.7341274324198198  0.23516609865019067  1.0000
  C   C51       1.0  0.7334656499265356  0.23426821408356163  0.3042277748227854  1.0000
  C   C52       1.0  0.26664768874608974  0.7661152424912556  0.6958174414677837  1.0000
  C   C53       1.0  0.6941834588133011  0.26650645838969106  0.7652943454599134  1.0000
  C   C54       1.0  0.7661897554786251  0.696240770159272  0.2670041343410729  1.0000
  C   C55       1.0  0.18249717876028645  0.1604529650724271  0.529287930705171  1.0000
  C   C56       1.0  0.162180705715891  0.5298795686112454  0.18289914836289123  1.0000
  C   C57       1.0  0.5290623653560934  0.1822731377957559  0.1606239235893558  1.0000
  C   C58       1.0  0.47083226638742093  0.8176715170893436  0.8389897345452758  1.0000
  C   C59       1.0  0.838136024392886  0.4706221425872209  0.8173924495708355  1.0000
  C   C60       1.0  0.817375001980489  0.8391824251144803  0.4706862800565675  1.0000
  C   C61       1.0  0.20213428139929732  0.09559629897283922  0.46165077219792305  1.0000
  C   C62       1.0  0.09626495047503743  0.4621070715171596  0.20171914078103398  1.0000
  C   C63       1.0  0.46091048198362744  0.20133203609243053  0.09522118458032117  1.0000
  C   C64       1.0  0.5388518278560914  0.7982675754378867  0.9039901588138891  1.0000
  C   C65       1.0  0.9040384176125786  0.5384568946990996  0.798595100556172  1.0000
  C   C66       1.0  0.7979817827844248  0.9043880105457792  0.5383569876343522  1.0000
  H   H37       1.0  0.2765939394157644  0.09781697975010024  0.5120266324048021  1.0000
  H   H38       1.0  0.09807720046541481  0.5125203399817446  0.27562282967638685  1.0000
  H   H39       1.0  0.511114048545149  0.2755695389400661  0.09732248290685877  1.0000
  H   H40       1.0  0.4885311906381882  0.7236587873039382  0.9014609335828432  1.0000
  H   H41       1.0  0.9022635276917516  0.4880752073663856  0.7247071957846869  1.0000
  H   H42       1.0  0.7235585669430519  0.9021820270056494  0.48790540820597217  1.0000
  C   C67       1.0  0.13082609817218993  0.028853643078204115  0.3302837731749824  1.0000
  C   C68       1.0  0.02882635160711396  0.33053787861211  0.130211020108457  1.0000
  C   C69       1.0  0.3293269662813884  0.12971978071483076  0.028035699401141072  1.0000
  C   C70       1.0  0.6705074160032065  0.8700256744657197  0.971315740457825  1.0000
  C   C71       1.0  0.9713287107411733  0.6699569124711791  0.8700019276568874  1.0000
  C   C72       1.0  0.8693856981166521  0.9714500273561932  0.6698022450450898  1.0000
  H   H43       1.0  0.14927332306800742  0.9800341456052873  0.2805869621522248  1.0000
  H   H44       1.0  0.9790722581680404  0.28072004174356846  0.1479385031805404  1.0000
  H   H45       1.0  0.2791860946512233  0.14767984842432955  0.9787512689098852  1.0000
  H   H46       1.0  0.7205509190132349  0.8518418438502926  0.020307358582876845  1.0000
  H   H47       1.0  0.02105530625197736  0.7198676990241093  0.8523059188189961  1.0000
  H   H48       1.0  0.8512065894924087  0.02060748326193268  0.7195956445971612  1.0000
  C   C73       1.0  0.037018135816872494  0.02549886719214592  0.26224603449674266  1.0000
  C   C74       1.0  0.02594470741967502  0.2624875050772233  0.03707934094787467  1.0000
  C   C75       1.0  0.26152187678574074  0.036081260954982576  0.024726910975965657  1.0000
  C   C76       1.0  0.7384643273815806  0.9640619593672133  0.9750993411309606  1.0000
  C   C77       1.0  0.9742726842832093  0.7380064028836506  0.9631919693508572  1.0000
  C   C78       1.0  0.9630908762816107  0.9747309547031411  0.7378947363614039  1.0000
  C   C79       1.0  0.01394626402476726  0.08707386604851187  0.32650963748017797  1.0000
  C   C80       1.0  0.08852868199452144  0.3268562317072521  0.014764733234567924  1.0000
  C   C81       1.0  0.32621476904358104  0.013438641757784343  0.08670498263323559  1.0000
  C   C82       1.0  0.6738721977194565  0.9869583161081029  0.9134269844916729  1.0000
  C   C83       1.0  0.911760107608877  0.6736388062256381  0.9855746135244841  1.0000
  C   C84       1.0  0.9860497749392816  0.9129110023133277  0.6736801121997631  1.0000
  H   H49       1.0  0.9407289533611276  0.08548098666463838  0.27479380608312404  1.0000
  H   H50       1.0  0.08716948252860503  0.27502406132657115  0.941962294874119  1.0000
  H   H51       1.0  0.27463092356498636  0.9402508604454554  0.08502823763633072  1.0000
  H   H52       1.0  0.72559147036182  0.06046177382679416  0.9154874880447896  1.0000
  H   H53       1.0  0.9132108628498604  0.7254655692709021  0.058449830891017754  1.0000
  H   H54       1.0  0.05930655994495156  0.914602370351678  0.7255433614560958  1.0000
  C   C85       1.0  0.08608291220334192  0.15327735053750188  0.4579357858118462  1.0000
  C   C86       1.0  0.15538743437697153  0.45848725540786855  0.08707564098649087  1.0000
  C   C87       1.0  0.4579379612373069  0.0860058780835595  0.15345858547751462  1.0000
  C   C88       1.0  0.5421746794055453  0.9144078458175843  0.8467007561831166  1.0000
  C   C89       1.0  0.8449335694984366  0.5420041558882059  0.9132344695844931  1.0000
  C   C90       1.0  0.9138126940727397  0.846411517763763  0.5421539787365793  1.0000
  H   H55       1.0  0.06764992061683779  0.20288203079480754  0.5068366299221861  1.0000
  H   H56       1.0  0.20582904895805154  0.5074947954308858  0.06929444634006741  1.0000
  H   H57       1.0  0.5072189421070598  0.06802895724183669  0.20355095317606378  1.0000
  H   H58       1.0  0.4930273473145326  0.9327209032452162  0.7970363024451682  1.0000
  H   H59       1.0  0.794617486306106  0.49307974952059774  0.9311449860263661  1.0000
  H   H60       1.0  0.932089246662944  0.7965681735903426  0.4932282142830349  1.0000
  C   C91       1.0  0.24102643813122648  0.1374124171588455  0.6835136561274033  1.0000
  C   C92       1.0  0.13874415853214928  0.6837801770591605  0.23956055202032336  1.0000
  C   C93       1.0  0.6833485812244385  0.24032599749582187  0.13778559654867248  1.0000
  C   C94       1.0  0.3168816910155167  0.7599063268359565  0.8621774680778076  1.0000
  C   C95       1.0  0.8620739758785346  0.3170805241905274  0.7613660091901479  1.0000
  C   C96       1.0  0.7587717937747878  0.8617896785715816  0.3160673333933202  1.0000
  H   H61       1.0  0.27766409754906  0.0990972651977636  0.6552840831472256  1.0000
  H   H62       1.0  0.09818865154806397  0.6538557278766086  0.27391558615533074  1.0000
  H   H63       1.0  0.6536019633212287  0.27530769387925896  0.09790957797650224  1.0000
  H   H64       1.0  0.3461727679463418  0.7243352961974235  0.901451626503397  1.0000
  H   H65       1.0  0.9021156206636644  0.34625964601724407  0.7263512929733013  1.0000
  H   H66       1.0  0.723077988951608  0.9010316459463591  0.34509815314933007  1.0000
  H   H67       1.0  0.13441926399621665  0.051484888248643626  0.6172461072500629  1.0000
  H   H68       1.0  0.05415427609337264  0.6185131657733622  0.13286120058212147  1.0000
  H   H69       1.0  0.6179869919324276  0.13377221187018537  0.052755090558261795  1.0000
  H   H70       1.0  0.3827260760573444  0.8665134039019752  0.9475598788611922  1.0000
  H   H71       1.0  0.9469908088417542  0.3830990280334467  0.8682346897396244  1.0000
  H   H72       1.0  0.8653396048619922  0.9471654141136482  0.3816620806782651  1.0000
  H   H73       1.0  0.29530887159145996  0.18855698924919145  0.7866813562436149  1.0000
  H   H74       1.0  0.1899664033935049  0.7871078459315239  0.29461613542016357  1.0000
  H   H75       1.0  0.7867853583303002  0.2953531220984022  0.18919894862513165  1.0000
  H   H76       1.0  0.21357140486170573  0.7052864282012433  0.8109905162945  1.0000
  H   H77       1.0  0.8111522739895656  0.21397123190419154  0.707164775209399  1.0000
  H   H78       1.0  0.703801449122646  0.8103211770288263  0.21268347040566526  1.0000
  C   C97       1.0  0.6215668460189527  0.5780579347508517  0.9083571670501597  1.0000
  C   C98       1.0  0.5785335782764003  0.9088261209262797  0.6238275726785298  1.0000
  C   C99       1.0  0.9074839604063073  0.6221956943754481  0.5776785340622331  1.0000
  C   C100      1.0  0.09176405149655517  0.3779339316952385  0.42179103948411933  1.0000
  C   C101      1.0  0.42243000613487575  0.09158619243930081  0.3764921687247079  1.0000
  C   C102      1.0  0.3779391929689294  0.4217442362664336  0.09211006994358831  1.0000
  H   H79       1.0  0.6529914567737671  0.5463688444523251  0.864552957656051  1.0000
  H   H80       1.0  0.5464537797251526  0.8639490899220806  0.6542775576131145  1.0000
  H   H81       1.0  0.8627458684262488  0.6529584795183287  0.5457982225682779  1.0000
  H   H82       1.0  0.13563722280185933  0.3465295874430417  0.4535993976302264  1.0000
  H   H83       1.0  0.45462341187372723  0.13644264562336908  0.3460783522202583  1.0000
  H   H84       1.0  0.34700241927329695  0.4530715002228692  0.13680960704550552  1.0000
  H   H85       1.0  0.6644471276980786  0.5938604882165912  0.994854441042467  1.0000
  H   H86       1.0  0.5932559130816442  0.9946571254930235  0.6664768350047482  1.0000
  H   H87       1.0  0.9936946294743935  0.6652275846281064  0.5930333049143531  1.0000
  H   H88       1.0  0.005269482128491083  0.3353267419883939  0.40597962892428746  1.0000
  H   H89       1.0  0.407979392957522  0.0059132674470589374  0.3341852808343376  1.0000
  H   H90       1.0  0.3347200897147095  0.4067552556294976  0.006141416889577272  1.0000
  H   H91       1.0  0.6629347550703315  0.6734788352428805  0.9428566877777979  1.0000
  H   H92       1.0  0.674710282170284  0.944544797373167  0.6663957869253048  1.0000
  H   H93       1.0  0.9427380165029102  0.6640157901177626  0.673441802785909  1.0000
  H   H94       1.0  0.05713230949481756  0.33628056653136945  0.3262897810962048  1.0000
  H   H95       1.0  0.32610219954214315  0.05561090792195893  0.333617458358025  1.0000
  H   H96       1.0  0.33644060737901704  0.3259341545898783  0.05657068409552866  1.0000
  C   C103      1.0  0.41371036347787943  0.45692751165359885  0.6886977375949807  1.0000
  C   C104      1.0  0.4595162874666043  0.6905586919353569  0.41646029064497664  1.0000
  C   C105      1.0  0.6887352012397853  0.41423750734535475  0.4572847938371671  1.0000
  C   C106      1.0  0.31134222029905156  0.5850693583677021  0.5425940805539704  1.0000
  C   C107      1.0  0.5413231397087271  0.31006080542499936  0.5834929632820427  1.0000
  C   C108      1.0  0.5860615544085263  0.5423180370540762  0.3110801644402586  1.0000
  H   H97       1.0  0.4291786117144523  0.4109897084352981  0.6317207203223817  1.0000
  H   H98       1.0  0.41420970419663705  0.6336466668915095  0.43221749361717715  1.0000
  H   H99       1.0  0.6310123165062829  0.42910690803012624  0.41110152487361373  1.0000
  H   H100      1.0  0.3670009251700804  0.5677750743071558  0.5869815470443119  1.0000
  H   H101      1.0  0.5876638972744325  0.36739876236891134  0.5685563401880281  1.0000
  H   H102      1.0  0.5698423456358866  0.5872600201984596  0.3677027584127431  1.0000
  H   H103      1.0  0.4654858612729733  0.5556322884780253  0.7274705106566052  1.0000
  H   H104      1.0  0.5585613740043787  0.729867744246675  0.4683863533551027  1.0000
  H   H105      1.0  0.7277762653632229  0.46624162204972297  0.5561229780329167  1.0000
  H   H106      1.0  0.2725348142066434  0.534102135704715  0.4439619010209175  1.0000
  H   H107      1.0  0.44225202417679593  0.2708217336147509  0.5308430800711494  1.0000
  H   H108      1.0  0.5348872139664622  0.44358591544098  0.2721252590781831  1.0000
  H   H109      1.0  0.3059560706125573  0.3933513752562669  0.6197867195111929  1.0000
  H   H110      1.0  0.395732865425589  0.6215876455038905  0.3087324140281347  1.0000
  H   H111      1.0  0.6204860670350183  0.30666897816720684  0.3940170638858786  1.0000
  H   H112      1.0  0.38149804695697653  0.6930810308509123  0.6075378892669135  1.0000
  H   H113      1.0  0.6042949247984274  0.3787281907665387  0.6910365595895481  1.0000
  H   H114      1.0  0.6939826132445625  0.6066171823900219  0.3803526160938599  1.0000
  O   O7        1.0  0.9665902513551107  0.9634457031653029  0.13390928060969845  1.0000
  O   O8        1.0  0.9633648338073715  0.13396229260569772  0.9665781883880777  1.0000
  O   O9        1.0  0.13295031259837653  0.9653960423882069  0.9622200869402523  1.0000
  O   O10       1.0  0.8670811149894724  0.03487538311639884  0.03769354650440863  1.0000
  O   O11       1.0  0.037017299211092265  0.8665738025170802  0.03381672767058602  1.0000
  O   O12       1.0  0.03360946936718741  0.03699969555877566  0.8663182023925267  1.0000
  H   H115      1.0  0.9955376554176035  0.9278734579454524  0.09915006596629866  1.0000
  H   H116      1.0  0.9276078075914307  0.09940119562947505  0.9954495258136631  1.0000
  H   H117      1.0  0.09814494614773892  0.9943428364244454  0.9266462201983277  1.0000
  H   H118      1.0  0.9019053156950957  0.005905291342230231  0.07321856263876123  1.0000
  H   H119      1.0  0.07255318445802654  0.900972383855445  0.004746022203561928  1.0000
  H   H120      1.0  0.004765274181113762  0.07269964549409114  0.9011477236659313  1.0000
