data_cif

_audit_creation_method             'generated by GULP'

_symmetry_space_group_name_H-M     'P 1 21/C 1      '
_symmetry_Int_Tables_number        14
_symmetry_cell_setting             Monoclinic  

_cell_length_a                      11.460232
_cell_length_b                       6.494137
_cell_length_c                      11.232127
_cell_angle_alpha                   90.000000
_cell_angle_beta                    97.178530
_cell_angle_gamma                   90.000000

loop_
_atom_site_label
_atom_site_fract_x
_atom_site_fract_y
_atom_site_fract_z
_atom_site_occupancy
  C4          0.15537      0.54878      0.06485  1.0000
  C4          0.24709      0.46195      0.00712  1.0000
  C4          0.29487      0.26987      0.04322  1.0000
  C4          0.25565      0.16376      0.13915  1.0000
  C4          0.16696      0.24930      0.19852  1.0000
  C4          0.11676      0.43911      0.16123  1.0000
  C8          0.09569      0.75134      0.02981  1.0000
  C8          0.37483      0.71338      0.93861  1.0000
  C2          0.40493      0.81066      0.82387  1.0000
  O7          0.12148      0.84306      0.93024  1.0000
  O1          0.02474      0.83188      0.08714  1.0000
  O3          0.29399      0.56081      0.91641  1.0000
  O1          0.41845      0.76581      0.03860  1.0000
  H6          0.36307      0.20359      0.99635  1.0000
  H6          0.29333      0.01531      0.16690  1.0000
  H6          0.13593      0.16739      0.27285  1.0000
  H6          0.04653      0.50075      0.20743  1.0000
  H5          0.44538      0.96148      0.84309  1.0000
  H5          0.32480      0.83047      0.76084  1.0000
  H5          0.46604      0.71100      0.78319  1.0000
  H9          0.06997      0.96469      0.92811  1.0000
