data_image0
_chemical_formula_structural       C36O16H32
_chemical_formula_sum              "C36 O16 H32"
_cell_length_a       11.318134223832296
_cell_length_b       7.108270078855316
_cell_length_c       11.842520931494912
_cell_angle_alpha    89.99673715449214
_cell_angle_beta     94.76460302416011
_cell_angle_gamma    89.96663224698469

_space_group_name_H-M_alt    "P 1"
_space_group_IT_number       1

loop_
  _space_group_symop_operation_xyz
  'x, y, z'

loop_
  _atom_site_type_symbol
  _atom_site_label
  _atom_site_symmetry_multiplicity
  _atom_site_fract_x
  _atom_site_fract_y
  _atom_site_fract_z
  _atom_site_occupancy
  C   C1        1.0  0.148221002653419  0.6010859098706219  0.058406739857515856  1.0000
  C   C2        1.0  0.8521837171020762  0.10005517596706949  0.441530139692788  1.0000
  C   C3        1.0  0.850900956262004  0.3993653299604975  0.941051127719071  1.0000
  C   C4        1.0  0.14881886850238257  0.8984883784406039  0.5589947323916244  1.0000
  C   C5        1.0  0.24470391719620577  0.5329301653192738  0.0026396309862771602  1.0000
  C   C6        1.0  0.7557974961804791  0.03268565778560828  0.49769385232661373  1.0000
  C   C7        1.0  0.7547792477472329  0.46724093529164473  0.9974052952993112  1.0000
  C   C8        1.0  0.24506877311819006  0.9668157815961723  0.5030635183134876  1.0000
  C   C9        1.0  0.2932435133876139  0.3570959579835604  0.028858454924021688  1.0000
  C   C10       1.0  0.7066327490874238  0.85731530283488  0.4716857392254469  1.0000
  C   C11       1.0  0.7059790203018177  0.6429664421097365  0.9715530954885189  1.0000
  C   C12       1.0  0.29394882323650173  0.1422186766986419  0.529689909406234  1.0000
  C   C13       1.0  0.24896653561855764  0.2471634409660007  0.11278271999146333  1.0000
  C   C14       1.0  0.7503923612295823  0.7466925124536855  0.38777431534362344  1.0000
  C   C15       1.0  0.7497907902133057  0.7533891279276966  0.8875864766783396  1.0000
  C   C16       1.0  0.2498854087198397  0.2518741125028186  0.6138709543167905  1.0000
  C   C17       1.0  0.15555431697577005  0.31402456454965405  0.17131305349941392  1.0000
  C   C18       1.0  0.8440394298370114  0.8124274275840762  0.3291980032904658  1.0000
  C   C19       1.0  0.8431887938565347  0.6871492215303723  0.8288005249283972  1.0000
  C   C20       1.0  0.1565068782246207  0.18499540451041988  0.6724104816197498  1.0000
  C   C21       1.0  0.10634018390915485  0.4883750058545679  0.14363477773179414  1.0000
  C   C22       1.0  0.8937094483917591  0.9865595262415437  0.3564805948259105  1.0000
  C   C23       1.0  0.8925379294718631  0.5126598330732949  0.8559691773912084  1.0000
  C   C24       1.0  0.10720714469061976  0.01085423580779781  0.6445510161452326  1.0000
  C   C25       1.0  0.08477194183331414  0.7803685206954335  0.03259596064748236  1.0000
  C   C26       1.0  0.915331730754214  0.2797503891457508  0.46670796309863166  1.0000
  C   C27       1.0  0.9141080647184039  0.21968005970254875  0.9663106710048095  1.0000
  C   C28       1.0  0.08550798451768404  0.719198834236576  0.5331004322108862  1.0000
  C   C29       1.0  0.3547178540959606  0.7912559226512698  0.9458417939995418  1.0000
  C   C30       1.0  0.645085416941631  0.29059219696816146  0.5541422669620437  1.0000
  C   C31       1.0  0.644282519961046  0.20969739864074546  0.054222289956938334  1.0000
  C   C32       1.0  0.35554759269880853  0.7097107687397792  0.4451558164903651  1.0000
  C   C33       1.0  0.39101136328107905  0.8921063874797958  0.8443945620883873  1.0000
  C   C34       1.0  0.6094986697878019  0.39240776228575236  0.6555505552723525  1.0000
  C   C35       1.0  0.6090108734125734  0.10754041785398204  0.15559464653588184  1.0000
  C   C36       1.0  0.3922072970899981  0.6105278361885583  0.3432644702514006  1.0000
  O   O1        1.0  0.11540219449078494  0.8766694963967733  0.9461108177173605  1.0000
  O   O2        1.0  0.8841435968615161  0.3770623720695778  0.5525848893317209  1.0000
  O   O3        1.0  0.8836223707991521  0.12327862030620891  0.05279460062825525  1.0000
  O   O4        1.0  0.11614958118787869  0.623103191110808  0.4465446317964802  1.0000
  O   O5        1.0  0.004285361346764377  0.8311898447704922  0.09222107815268432  1.0000
  O   O6        1.0  0.9959192524333716  0.3300754014215107  0.4070630886362336  1.0000
  O   O7        1.0  0.9942329948494811  0.16860198679079724  0.9062801647786703  1.0000
  O   O8        1.0  0.005246831807396187  0.6681248953226975  0.5929056925817162  1.0000
  O   O9        1.0  0.29221665423896953  0.63120260409155  0.9162844532574237  1.0000
  O   O10       1.0  0.7088089484447311  0.13173960459064787  0.5840193452357936  1.0000
  O   O11       1.0  0.7079226167855693  0.36858087620898483  0.08394940236519755  1.0000
  O   O12       1.0  0.292122584390639  0.8691881432689981  0.41618342539170894  1.0000
  O   O13       1.0  0.37576891465127776  0.837468246696043  0.0442059970153084  1.0000
  O   O14       1.0  0.622690522877932  0.33507681308830795  0.45565452179943405  1.0000
  O   O15       1.0  0.6218192500311316  0.16530442683705476  0.9557245665604581  1.0000
  O   O16       1.0  0.37708340683501923  0.6630525360508293  0.5433795597599171  1.0000
  H   H1        1.0  0.3670994466703936  0.3079560935986224  0.9826273834245719  1.0000
  H   H2        1.0  0.6326669237712796  0.8091950553755228  0.5180361395591515  1.0000
  H   H3        1.0  0.6323065502949564  0.6915763126815855  0.018179462636021895  1.0000
  H   H4        1.0  0.3677692786383744  0.19121357934744063  0.48339861098417275  1.0000
  H   H5        1.0  0.2884843788317187  0.10904771375829128  0.13160535033915935  1.0000
  H   H6        1.0  0.710389514984788  0.6089212734682871  0.36915108010489395  1.0000
  H   H7        1.0  0.7099784081769785  0.8913772779430078  0.8690062248913347  1.0000
  H   H8        1.0  0.2895144907597271  0.3897444251595869  0.6329595120675842  1.0000
  H   H9        1.0  0.12045814363667796  0.23104283921605007  0.23872173508954228  1.0000
  H   H10       1.0  0.8788213402734225  0.7289538154176385  0.26181142100322385  1.0000
  H   H11       1.0  0.8780308029643348  0.7706304756778364  0.7614690455340809  1.0000
  H   H12       1.0  0.12156922566857438  0.26776794918061114  0.7400185971648675  1.0000
  H   H13       1.0  0.03234951700893194  0.5428722303447476  0.18754070724931324  1.0000
  H   H14       1.0  0.967692759062414  0.04014349584319561  0.312226004596867  1.0000
  H   H15       1.0  0.9664191436188538  0.45856177410736  0.8117162324415316  1.0000
  H   H16       1.0  0.03341700315991186  0.9561480157518385  0.6886285045523968  1.0000
  H   H17       1.0  0.46866788863205233  0.9800228197804817  0.8692988284114183  1.0000
  H   H18       1.0  0.5315979860171023  0.48004497437689597  0.6308615465591999  1.0000
  H   H19       1.0  0.530637683492426  0.02094203094409851  0.13110302412332397  1.0000
  H   H20       1.0  0.46940247787757966  0.5213709569116581  0.36795758551903796  1.0000
  H   H21       1.0  0.31674101077501016  0.9838987837349878  0.8126894102894096  1.0000
  H   H22       1.0  0.6838367124970546  0.484360746093091  0.6867198871416796  1.0000
  H   H23       1.0  0.6831772062750472  0.014347967969024818  0.1857178795925094  1.0000
  H   H24       1.0  0.31782813244554636  0.5202277549323262  0.31013688352805263  1.0000
  H   H25       1.0  0.4078545617713839  0.7948676040036922  0.775300585512717  1.0000
  H   H26       1.0  0.5931345470664994  0.2955610636026293  0.7249656390281631  1.0000
  H   H27       1.0  0.5936532033825235  0.2036726025142621  0.22564605782744815  1.0000
  H   H28       1.0  0.40998392809670453  0.7091134322914115  0.27511926523974073  1.0000
  H   H29       1.0  0.062329964659505036  0.9997171280144073  0.9335455508371336  1.0000
  H   H30       1.0  0.9372746764886064  0.500154193259751  0.5650902617973169  1.0000
  H   H31       1.0  0.9364699683903214  0.9998497441958865  0.06498920035422451  1.0000
  H   H32       1.0  0.06352240074339668  0.49975259859156923  0.43402170807285523  1.0000
