data_cif

_audit_creation_method             'generated by GULP'

_symmetry_space_group_name_H-M     'P 1 21/C 1      '
_symmetry_Int_Tables_number        14
_symmetry_cell_setting             Monoclinic  

_cell_length_a                      14.074836
_cell_length_b                       5.369723
_cell_length_c                      10.008662
_cell_angle_alpha                   90.000000
_cell_angle_beta                    89.497240
_cell_angle_gamma                   90.000000

loop_
_atom_site_label
_atom_site_fract_x
_atom_site_fract_y
_atom_site_fract_z
_atom_site_occupancy
  C           0.15324      0.49026      0.08115  1.0000
  C           0.25098      0.47385      0.04080  1.0000
  C           0.30740      0.27754      0.09165  1.0000
  C           0.26936      0.10271      0.17994  1.0000
  C           0.17379      0.11936      0.22009  1.0000
  C           0.11681      0.31068      0.17072  1.0000
  C           0.09035      0.69919      0.03669  1.0000
  C           0.38262      0.73883      0.96800  1.0000
  C           0.42001      0.89413      0.85429  1.0000
  O           0.11241      0.82356      0.92028  1.0000
  O           0.02011      0.75953      0.10552  1.0000
  O           0.29041      0.64866      0.95021  1.0000
  O           0.43191      0.70055      0.06749  1.0000
  H           0.38211      0.26976      1.06099  1.0000
  H           0.31364     -0.04936      0.21705  1.0000
  H           0.14384     -0.01969      0.28876  1.0000
  H           0.04220      0.32538      0.20154  1.0000
  H           0.45847      1.05890      0.89135  1.0000
  H           0.36094      0.95952      0.79127  1.0000
  H           0.46910      0.78537      0.79034  1.0000
  H           0.06660      0.96771      0.91093  1.0000
