data_image0
_chemical_formula_structural       C36O16H32
_chemical_formula_sum              "C36 O16 H32"
_cell_length_a       11.416
_cell_length_b       6.598
_cell_length_c       11.483
_cell_angle_alpha    90.0
_cell_angle_beta     95.6
_cell_angle_gamma    90.0

_space_group_name_H-M_alt    "P 1"
_space_group_IT_number       1

loop_
  _space_group_symop_operation_xyz
  'x, y, z'

loop_
  _atom_site_type_symbol
  _atom_site_label
  _atom_site_symmetry_multiplicity
  _atom_site_fract_x
  _atom_site_fract_y
  _atom_site_fract_z
  _atom_site_occupancy
  C   C1        1.0  0.1527632501514054  0.5664029119866818  0.06682678555492275  1.0000
  C   C2        1.0  0.8472367764426223  0.06640295265319436  0.43317320769733014  1.0000
  C   C3        1.0  0.8470069241090129  0.4336106248928724  0.9332064130510919  1.0000
  C   C4        1.0  0.15299307292162428  0.933610566717441  0.5667935376130762  1.0000
  C   C5        1.0  0.2467763242715899  0.4903670219063335  0.00865556484370985  1.0000
  C   C6        1.0  0.7532235699265571  0.9903669452454018  0.49134428333401503  1.0000
  C   C7        1.0  0.7529631373997181  0.5098121567018635  0.9912757047746731  1.0000
  C   C8        1.0  0.24703691472991143  0.009811988895727252  0.5087243401629934  1.0000
  C   C9        1.0  0.29936602372206533  0.30545130113806646  0.04011324742368729  1.0000
  C   C10       1.0  0.7006340459946004  0.8054513377222341  0.4598867870551738  1.0000
  C   C11       1.0  0.7004495950485988  0.6947275584439373  0.9597137184452866  1.0000
  C   C12       1.0  0.2995501927786373  0.19472781634874892  0.5402862363230727  1.0000
  C   C13       1.0  0.26032813959598666  0.19308285284114235  0.13170592418036578  1.0000
  C   C14       1.0  0.7396718757547486  0.6930829606600301  0.3682941606480568  1.0000
  C   C15       1.0  0.7396012890461853  0.8069797585058447  0.8681342781317917  1.0000
  C   C16       1.0  0.26039876018048463  0.30697958665450836  0.6318656679169433  1.0000
  C   C17       1.0  0.16820679713676617  0.26587139749703487  0.19163168715891396  1.0000
  C   C18       1.0  0.8317930558865194  0.7658713527874029  0.3083681434163856  1.0000
  C   C19       1.0  0.8317705633402299  0.7340675875962347  0.8083220483378541  1.0000
  C   C20       1.0  0.16822965332712886  0.23406760827868717  0.6916780181912686  1.0000
  C   C21       1.0  0.11516759878125601  0.44959624272739057  0.15878060628765525  1.0000
  C   C22       1.0  0.8848324868976342  0.9495961788934748  0.3412195182189362  1.0000
  C   C23       1.0  0.8847236686066056  0.5503296316044896  0.84127213587399  1.0000
  C   C24       1.0  0.11527612761563955  0.05032976196890902  0.6587277526408691  1.0000
  C   C25       1.0  0.08846184073992228  0.7590073173131843  0.03814006627771395  1.0000
  C   C26       1.0  0.9115382241833266  0.2590073458545509  0.4618599060804671  1.0000
  C   C27       1.0  0.9112985521105034  0.24106285644933775  0.9620161738063887  1.0000
  C   C28       1.0  0.08870140579983028  0.7410629702653525  0.5379838564736024  1.0000
  C   C29       1.0  0.3680744887727077  0.7457930189332636  0.9394022134137795  1.0000
  C   C30       1.0  0.6319255595072519  0.24579305823688227  0.5605976515895124  1.0000
  C   C31       1.0  0.6318237587761251  0.2540849167666687  0.06052849753890585  1.0000
  C   C32       1.0  0.3681760862368094  0.7540849769677435  0.4394709657973214  1.0000
  C   C33       1.0  0.3968065002918775  0.8513433803226138  0.8307886640039823  1.0000
  C   C34       1.0  0.6031934528178956  0.35134346960148366  0.6692112289432245  1.0000
  C   C35       1.0  0.6030165509481363  0.1486465202149956  0.16917076878487847  1.0000
  C   C36       1.0  0.3969834205511053  0.6486463969117686  0.33082918276445467  1.0000
  O   O1        1.0  0.12128541059504348  0.8639731296225825  0.9487552419147628  1.0000
  O   O2        1.0  0.8787145277424897  0.36397327245089944  0.551244723543821  1.0000
  O   O3        1.0  0.8782755509663567  0.13588641249116873  0.05126055765165967  1.0000
  O   O4        1.0  0.1217244362396555  0.6358864916235486  0.44873938777497935  1.0000
  O   O5        1.0  0.007292989923164056  0.815059237231733  0.09621416548481213  1.0000
  O   O6        1.0  0.9927069775327373  0.3150591656170014  0.4037858913291995  1.0000
  O   O7        1.0  0.9926279187472412  0.18509907956791483  0.904119811456871  1.0000
  O   O8        1.0  0.007372097592949906  0.6850990929753286  0.5958802061026489  1.0000
  O   O9        1.0  0.2882782417633807  0.5914659841553468  0.9136355692689261  1.0000
  O   O10       1.0  0.7117218034548717  0.09146586893340942  0.5863644706779834  1.0000
  O   O11       1.0  0.7113335020895086  0.408787398382987  0.08628545307802636  1.0000
  O   O12       1.0  0.288666596455558  0.9087872816733424  0.41371465271755203  1.0000
  O   O13       1.0  0.4068790957999344  0.7856482099352764  0.03958112298872081  1.0000
  O   O14       1.0  0.5931209130193007  0.2856481287725577  0.46041912872405033  1.0000
  O   O15       1.0  0.5932559004873289  0.2138033800950958  0.960335900883931  1.0000
  O   O16       1.0  0.40674413647253016  0.7138034765249333  0.5396644657903081  1.0000
  H   H1        1.0  0.3712651027533625  0.25169744392076965  0.9923556044894905  1.0000
  H   H2        1.0  0.6287347974018365  0.7516974668459842  0.5076444162710727  1.0000
  H   H3        1.0  0.6284650803945355  0.7485275682119815  0.007341849475342496  1.0000
  H   H4        1.0  0.371535015421063  0.24852752759888355  0.49265817401686113  1.0000
  H   H5        1.0  0.301926460324536  0.048323240565242565  0.1554570516469622  1.0000
  H   H6        1.0  0.6980735691279547  0.5483234832211997  0.3445429874433688  1.0000
  H   H7        1.0  0.6980536091129134  0.951746542396845  0.8443084558229716  1.0000
  H   H8        1.0  0.30194644964646117  0.45174670185143967  0.655691514358979  1.0000
  H   H9        1.0  0.1375054191802266  0.1804892003576865  0.2638520746660219  1.0000
  H   H10       1.0  0.86249460462618  0.6804892393933752  0.23614796828153242  1.0000
  H   H11       1.0  0.8626015830081629  0.8193776445817229  0.7361399075788789  1.0000
  H   H12       1.0  0.13739838468857765  0.31937773294791466  0.7638600383800138  1.0000
  H   H13       1.0  0.04271212781325205  0.506757063311134  0.20427012896206737  1.0000
  H   H14       1.0  0.9572877749756223  0.006757088826023654  0.29572993781068935  1.0000
  H   H15       1.0  0.9572422891624711  0.49310126969583223  0.7958971237922855  1.0000
  H   H16       1.0  0.04275777605089015  0.9931011323068079  0.7041028830089515  1.0000
  H   H17       1.0  0.4653376285185116  0.9643585272852218  0.853331020788863  1.0000
  H   H18       1.0  0.5346623185088835  0.4643586188915187  0.6466690167408574  1.0000
  H   H19       1.0  0.5342204345704725  0.036096020391689104  0.14664419348325888  1.0000
  H   H20       1.0  0.4657795842937809  0.536096056256113  0.35335586483692827  1.0000
  H   H21       1.0  0.3168517168321011  0.9260331483676157  0.7905586741374637  1.0000
  H   H22       1.0  0.6831483059323488  0.42603314693431366  0.7094413052111613  1.0000
  H   H23       1.0  0.6828534878266049  0.07325026778062951  0.20914160359002698  1.0000
  H   H24       1.0  0.3171464071604219  0.5732502442561039  0.29085843946596474  1.0000
  H   H25       1.0  0.4244326993093819  0.7437736283648857  0.7659883225631381  1.0000
  H   H26       1.0  0.5755673081113957  0.24377370843267493  0.7340116257696149  1.0000
  H   H27       1.0  0.5757803138260307  0.2562860646291398  0.23411993320634483  1.0000
  H   H28       1.0  0.4242196314719744  0.7562863071081741  0.2658800385433839  1.0000
  H   H29       1.0  0.06950903605518728  0.9910538308862628  0.9352999447427318  1.0000
  H   H30       1.0  0.930490962439055  0.4910539055824437  0.5647000379787255  1.0000
  H   H31       1.0  0.930318092623863  0.009168160510822924  0.06492261580437364  1.0000
  H   H32       1.0  0.06968185668098559  0.5091681241586511  0.4350773587337932  1.0000
