data_ACSALA07.b3lyp.6-311G**.dma4.-102.8127.1.3932
_audit_creation_method 'generated by cspy2.0'
_cell_length_a 11.5178
_cell_length_b 6.7636
_cell_length_c 11.0259
_cell_angle_alpha 90.0
_cell_angle_beta 89.9565
_cell_angle_gamma 90.0
loop_
_symmetry_equiv_pos_site_id
_symmetry_equiv_pos_as_xyz
1 +x,+y,+z
loop_
_atom_site_label
_atom_site_type_symbol
_atom_site_fract_x
_atom_site_fract_y
_atom_site_fract_z
_atom_site_occupancy
C1 C       0.152043790000       0.558564070000       0.071688170000       1.000000000000
C2 C       0.248092260000       0.493855610000       0.003128150000       1.000000000000
C3 C       0.299443030000       0.315608680000       0.028560800000       1.000000000000
C4 C       0.258311780000       0.196635360000       0.123225550000       1.000000000000
C5 C       0.164828710000       0.260806850000       0.189868280000       1.000000000000
C6 C       0.112762250000       0.436705550000       0.165328810000       1.000000000000
C7 C       0.089725980000       0.748724320000       0.050548740000       1.000000000000
C8 C       0.368086100000       0.745542890000      -0.068896640000       1.000000000000
C9 C       0.402413830000       0.853361930000      -0.180526190000       1.000000000000
C10 C       0.835475740000       0.425103700000       0.980113500000       1.000000000000
C11 C       0.739310830000       0.491502350000       1.047881920000       1.000000000000
C12 C       0.689206210000       0.670602360000       1.021996060000       1.000000000000
C13 C       0.731737440000       0.788798940000       0.927639710000       1.000000000000
C14 C       0.825326140000       0.722982530000       0.861767710000       1.000000000000
C15 C       0.876166890000       0.546217760000       0.886765670000       1.000000000000
C16 C       0.896507800000       0.233900080000       1.001797430000       1.000000000000
C17 C       0.617306890000       0.241933990000       1.118990970000       1.000000000000
C18 C       0.581519020000       0.134786370000       1.230364200000       1.000000000000
C19 C       0.844010940000       0.058564060000       0.478828270000       1.000000000000
C20 C       0.747962470000      -0.006144390000       0.547388290000       1.000000000000
C21 C       0.696611700000      -0.184391320000       0.521955640000       1.000000000000
C22 C       0.737742950000      -0.303364640000       0.427290890000       1.000000000000
C23 C       0.831226020000      -0.239193150000       0.360648160000       1.000000000000
C24 C       0.883292480000      -0.063294460000       0.385187630000       1.000000000000
C25 C       0.906328750000       0.248724320000       0.499967700000       1.000000000000
C26 C       0.627968640000       0.245542890000       0.619413080000       1.000000000000
C27 C       0.593640910000       0.353361940000       0.731042630000       1.000000000000
C28 C       0.160578990000       0.925103700000       0.570402940000       1.000000000000
C29 C       0.256743900000       0.991502340000       0.502634510000       1.000000000000
C30 C       0.306848520000       1.170602360000       0.528520390000       1.000000000000
C31 C       0.264317290000       1.288798930000       0.622876720000       1.000000000000
C32 C       0.170728580000       1.222982520000       0.688748730000       1.000000000000
C33 C       0.119887840000       1.046217740000       0.663750770000       1.000000000000
C34 C       0.099546930000       0.733900070000       0.548719010000       1.000000000000
C35 C       0.378747840000       0.741933990000       0.431525470000       1.000000000000
C36 C       0.414535710000       0.634786370000       0.320152230000       1.000000000000
O1 O       0.122414890000       0.859841270000      -0.039787710000       1.000000000000
O2 O       0.006431880000       0.793651850000       0.115913230000       1.000000000000
O3 O       0.290808500000       0.600953510000      -0.095863840000       1.000000000000
O4 O       0.397912730000       0.779540550000       0.032766170000       1.000000000000
O5 O       0.862496640000       0.123411800000       1.091892030000       1.000000000000
O6 O       0.980012720000       0.187502130000       0.937117120000       1.000000000000
O7 O       0.695232940000       0.385210760000       1.146549980000       1.000000000000
O8 O       0.588033970000       0.208378270000       1.017097170000       1.000000000000
O9 O       0.873639840000       0.359841270000       0.590304150000       1.000000000000
O10 O       0.989622850000       0.293651850000       0.434603220000       1.000000000000
O11 O       0.705246240000       0.100953510000       0.646380280000       1.000000000000
O12 O       0.598142000000       0.279540560000       0.517750270000       1.000000000000
O13 O       0.133558100000       0.623411800000       0.458624410000       1.000000000000
O14 O       0.016042030000       0.687502120000       0.613399330000       1.000000000000
O15 O       0.300821800000       0.885210750000       0.403966470000       1.000000000000
O16 O       0.408020760000       0.708378260000       0.533419280000       1.000000000000
H1 H       0.372654130000       0.264638460000      -0.033576710000       1.000000000000
H2 H       0.300397170000       0.056770550000       0.146064560000       1.000000000000
H3 H       0.132456710000       0.162104500000       0.269486260000       1.000000000000
H4 H       0.040758160000       0.487618690000       0.218776060000       1.000000000000
H5 H       0.461942080000       0.970009880000      -0.155766430000       1.000000000000
H6 H       0.332848450000       0.903155750000      -0.233457050000       1.000000000000
H7 H       0.441289740000       0.755832340000      -0.246097030000       1.000000000000
H8 H       0.067201050000       0.986509660000      -0.048259270000       1.000000000000
H9 H       0.615843030000       0.722867680000       1.083529590000       1.000000000000
H10 H       0.690651340000       0.929361850000       0.904430680000       1.000000000000
H11 H       0.858867760000       0.821069740000       0.782391470000       1.000000000000
H12 H       0.948259230000       0.494036230000       0.833912440000       1.000000000000
H13 H       0.521489610000       0.019147030000       1.205149790000       1.000000000000
H14 H       0.650392500000       0.083840030000       1.283866560000       1.000000000000
H15 H       0.542737840000       0.233022800000       1.295598090000       1.000000000000
H16 H       0.916894350000      -0.004190280000       1.100837110000       1.000000000000
H17 H       0.623400610000      -0.235361540000       0.584093150000       1.000000000000
H18 H       0.695657560000      -0.443229450000       0.404451870000       1.000000000000
H19 H       0.863598030000      -0.337895500000       0.281030180000       1.000000000000
H20 H       0.955296570000      -0.012381310000       0.331740380000       1.000000000000
H21 H       0.534112660000       0.470009890000       0.706282860000       1.000000000000
H22 H       0.663206280000       0.403155750000       0.783973480000       1.000000000000
H23 H       0.554764990000       0.255832340000       0.796613460000       1.000000000000
H24 H       0.928853700000       0.486509650000       0.598775710000       1.000000000000
H25 H       0.380211710000       1.222867670000       0.466986850000       1.000000000000
H26 H       0.305403390000       1.429361840000       0.646085760000       1.000000000000
H27 H       0.137186960000       1.321069730000       0.768124970000       1.000000000000
H28 H       0.047795490000       0.994036220000       0.716604010000       1.000000000000
H29 H       0.474565120000       0.519147030000       0.345366640000       1.000000000000
H30 H       0.345662230000       0.583840030000       0.266649870000       1.000000000000
H31 H       0.453316890000       0.733022800000       0.254918350000       1.000000000000
H32 H       0.079160380000       0.495809710000       0.449679320000       1.000000000000
#END