# CIF file generated from CASTEP cell file
# https://gist.github.com/blake-armstrong/93facdde07a6e0a1ddb51857dd48e3f1
# Structure converted from CASTEP

data_structure

_cell_length_a    11.331594644181585
_cell_length_b    6.606190397765634
_cell_length_c    11.387912149887581
_cell_angle_alpha 89.998633062953672
_cell_angle_beta  96.072249548017737
_cell_angle_gamma 90.000009815371627

_symmetry_space_group_name_H-M 'P 1'
_symmetry_Int_Tables_number 1

loop_
_atom_site_label
_atom_site_type_symbol
_atom_site_fract_x
_atom_site_fract_y
_atom_site_fract_z
H1       H     0.371409806265797    0.250914875758082   -0.009500881031303
H2       H     0.302102832449847    0.048206471648622    0.154564608705519
H3       H     0.137198702436951    0.180236555429515    0.263169617818477
H4       H     0.042282150201742    0.507209247461408    0.203321277727029
H5       H     0.466402128091517    0.962794160374500   -0.147540600868998
H6       H     0.315668916956234    0.932618319376157   -0.209548857207091
H7       H     0.420314684617744    0.747127428500917   -0.237765842498114
H8       H     0.069035706452874    0.991370975604793   -0.065171147532364
H9       H     0.628601993072532   -0.249105262483581    0.509511432603668
H10      H     0.697908019882334   -0.451809132622385    0.345448479150298
H11      H     0.862797956156780   -0.319759114154296    0.236826770174916
H12      H     0.957718117095586    0.007189299000734    0.296681977859541
H13      H     0.533599522911141    0.462782769505422    0.647530296601036
H14      H     0.684332969158221    0.432626489148855    0.709555030372669
H15      H     0.579674072212237    0.247147559477155    0.737779466339356
H16      H     0.930968666237312    0.491363692954361    0.565161810339542
H17      H     0.628587072408539    0.749092251927959    1.009502887980752
H18      H     0.697900200484366    0.951792099385291    0.845435381701086
H19      H     0.862803227222118    0.819765684567506    0.736825607398425
H20      H     0.957715949953754    0.492791999743523    0.796679963745366
H21      H     0.533599071532894    0.037207045824629    1.147542130179991
H22      H     0.684331825931527    0.067378125826395    1.209550973167145
H23      H     0.579686258871264    0.252874331394007    1.237766557517336
H24      H     0.930961379115433    0.008626757930383    1.065168025960912
H25      H     0.371398719175510    1.249103500423154    0.490488959115452
H26      H     0.302092306387961    1.451809194739869    0.654551026570717
H27      H     0.137202611611800    1.319756839581317    0.763172430476733
H28      H     0.042280671671134    0.992808222801867    0.703317794038267
H29      H     0.466400063396887    0.537216393708970    0.352470135718095
H30      H     0.315668299850325    0.567373502879703    0.290444597700894
H31      H     0.420325512064960    0.752851498067637    0.262221733781016
H32      H     0.069030272377515    0.508636756255394    0.434836532311633
C1       C     0.152389270667488    0.565995288430196    0.065248892354735
C2       C     0.246452403084991    0.489675175162641    0.006608712384765
C3       C     0.299341426783340    0.304774752856433    0.038332079312003
C4       C     0.260266822331574    0.192655765493172    0.130490818713575
C5       C     0.167868228857749    0.265562432466218    0.190671612659948
C6       C     0.114715950625228    0.449435618300069    0.157675470851031
C7       C     0.088153414900494    0.759060312214947    0.036916571764600
C8       C     0.366974273941255    0.746391858261727   -0.061796545137308
C9       C     0.395565358166852    0.853356338917255   -0.170777808188754
C10      C     0.847601579738678    0.066002568168716    0.434739016921276
C11      C     0.753540469049801   -0.010322887744679    0.493384753422695
C12      C     0.700653338453641   -0.195222241756465    0.461662222408357
C13      C     0.739729116022910   -0.307346173109177    0.369509231359556
C14      C     0.832120588834356   -0.234434761742848    0.309320122919104
C15      C     0.885271036836028   -0.050562523297243    0.342315597845718
C16      C     0.911856692494538    0.259048733015583    0.463078577283322
C17      C     0.633032386120999    0.246385623848865    0.561807680197984
C18      C     0.604438850447069    0.353354692880544    0.670784809723300
C19      C     0.847609006239682    0.434005261666523    0.934749980183082
C20      C     0.753546365627503    0.510327287822491    0.993392724639959
C21      C     0.700655782234452    0.695227525490742    0.961669017258876
C22      C     0.739733968846313    0.807343634131312    0.869509956680604
C23      C     0.832131888371853    0.734441917255805    0.809325795776666
C24      C     0.885283044596441    0.550568571398480    0.842324816325526
C25      C     0.911847632145994    0.240939482956211    0.963083118629276
C26      C     0.633025402885852    0.253605379808472    1.061795222652671
C27      C     0.604436314354007    0.146643989684625    1.170778656503462
C28      C     0.152398894288070    0.933997320404028    0.565261212923815
C29      C     0.246459706205126    1.010322847061134    0.506615199316398
C30      C     0.299347038434855    1.195222122833540    0.538337997876947
C31      C     0.260272316515992    1.307344252332015    0.630492131721220
C32      C     0.167879499224091    1.234433444056038    0.690679350934290
C33      C     0.114728625092357    1.050560994909124    0.657684921676227
C34      C     0.088143649550958    0.740951252156663    0.536921250019022
C35      C     0.366967845330917    0.753614786931392    0.438192382803370
C36      C     0.395561336059974    0.646644902168243    0.329216224177246
O1       O     0.121063052021939    0.864601339007658   -0.052511302983236
O2       O     0.007219213353077    0.814840878247708    0.095481599769360
O3       O     0.287683681504835    0.590644007864696   -0.088872953408217
O4       O     0.405338944832188    0.785892156184318    0.039314820860717
O5       O     0.878941155093964    0.364594505265585    0.552499169013835
O6       O     0.992808110319820    0.314815366588523    0.404530426397739
O7       O     0.712310275560079    0.090614122855467    0.588877209209053
O8       O     0.594685252705288    0.285926437704266    0.460695992815068
O9       O     0.878930531991732    0.135390614306380    1.052504726503046
O10      O     0.992789968612028    0.185163480582662    0.904527081160314
O11      O     0.712313029114899    0.409357715824426    1.088872823248139
O12      O     0.594662470891115    0.214102621501577    0.960683629207357
O13      O     0.121057383022630    0.635407027757958    0.447499085199051
O14      O     0.007193311813147    0.685186199212924    0.595471389053785
O15      O     0.287688938134603    0.909384893664542    0.411122158932728
O16      O     0.405316234798681    0.714074547960532    0.539303762235397
