data_C13H10O
_audit_creation_method 'chmpy python library version 1.0a1'
_cell_length_a 10.092329
_cell_length_b 11.231043
_cell_length_c 7.453595
_cell_angle_alpha 90.0
_cell_angle_beta 90.0
_cell_angle_gamma 90.0
loop_
_symmetry_equiv_pos_site_id
_symmetry_equiv_pos_as_xyz
                   1 +x,+y,+z
                   2 -x,1/2+y,1/2-z
                   3 1/2-x,-y,1/2+z
                   4 1/2+x,1/2-y,-z
loop_
_atom_site_label
_atom_site_type_symbol
_atom_site_fract_x
_atom_site_fract_y
_atom_site_fract_z
_atom_site_occupancy
C C       0.217546000000       0.013940000000       0.217229000000       1.000000000000
C C       0.523273000000       0.267704000000       0.139684000000       1.000000000000
C C       0.658072000000       0.245589000000       0.110266000000       1.000000000000
C C       0.719461000000       0.147048000000       0.190612000000       1.000000000000
C C       0.645376000000       0.070622000000       0.300726000000       1.000000000000
C C       0.510410000000       0.092392000000       0.329698000000       1.000000000000
C C       0.118486000000       0.926800000000       0.228503000000       1.000000000000
C C       0.002554000000       0.948922000000       0.327065000000       1.000000000000
C C       0.987596000000       0.057366000000       0.418508000000       1.000000000000
C C       0.086636000000       0.144251000000       0.407246000000       1.000000000000
C C       0.203165000000       0.124496000000       0.306238000000       1.000000000000
C C       0.304792000000       0.221905000000       0.291682000000       1.000000000000
C C       0.446998000000       0.191922000000       0.250840000000       1.000000000000
O O       0.271052000000       0.327146000000       0.313137000000       1.000000000000
H H       0.306227000000      -0.001917000000       0.136726000000       1.000000000000
H H       0.474754000000       0.344039000000       0.077258000000       1.000000000000
H H       0.715736000000       0.305397000000       0.024940000000       1.000000000000
H H       0.824740000000       0.129827000000       0.167465000000       1.000000000000
H H       0.693152000000      -0.006431000000       0.363060000000       1.000000000000
H H       0.452409000000       0.033132000000       0.415201000000       1.000000000000
H H       0.130955000000       0.841796000000       0.158652000000       1.000000000000
H H       0.922588000000       0.883134000000       0.328138000000       1.000000000000
H H       0.899199000000       0.074727000000       0.499468000000       1.000000000000
H H       0.076220000000       0.229179000000       0.477164000000       1.000000000000
#END