data_image0
_chemical_formula_structural       C52O4H40
_chemical_formula_sum              "C52 O4 H40"
_cell_length_a       10.256951101012504
_cell_length_b       12.446354362137017
_cell_length_c       8.377704110513204
_cell_angle_alpha    89.98524819830618
_cell_angle_beta     89.31485488886541
_cell_angle_gamma    90.0348946093731

_space_group_name_H-M_alt    "P 1"
_space_group_IT_number       1

loop_
  _space_group_symop_operation_xyz
  'x, y, z'

loop_
  _atom_site_type_symbol
  _atom_site_label
  _atom_site_symmetry_multiplicity
  _atom_site_fract_x
  _atom_site_fract_y
  _atom_site_fract_z
  _atom_site_occupancy
  C   C1        1.0  0.2119191353709745  0.04380228517245547  0.2035626434143226  1.0000
  C   C2        1.0  0.7072276332470165  0.456028785704371  0.7878284847863208  1.0000
  C   C3        1.0  0.7887309896613542  0.5442704616972955  0.2960586206102791  1.0000
  C   C4        1.0  0.29315373264665007  0.9565724476278382  0.7119194592411972  1.0000
  C   C5        1.0  0.5181835628270689  0.2799475841639029  0.16229927080886816  1.0000
  C   C6        1.0  0.014246797944374919  0.2215812796462173  0.8354905274244195  1.0000
  C   C7        1.0  0.48111580529233244  0.7793888484357324  0.3393492129538966  1.0000
  C   C8        1.0  0.9864460157997338  0.7211253895813199  0.6643260162685839  1.0000
  C   C9        1.0  0.6494171933389973  0.26022295631238  0.13247170105320508  1.0000
  C   C10       1.0  0.14445029268112167  0.24202498243099904  0.8670369931817081  1.0000
  C   C11       1.0  0.34997269868969594  0.7592490653034377  0.36922522831584126  1.0000
  C   C12       1.0  0.8561108873430711  0.7412061793284596  0.6331228875794757  1.0000
  C   C13       1.0  0.7042847379639321  0.1620556824737683  0.17612757239910978  1.0000
  C   C14       1.0  0.19985201807816536  0.34051714105968756  0.8241475544482807  1.0000
  C   C15       1.0  0.2954431268916098  0.6608655110911835  0.32581395718036177  1.0000
  C   C16       1.0  0.8005431579577093  0.8395263183762355  0.676231370073555  1.0000
  C   C17       1.0  0.6276591875029182  0.08364201097746712  0.25025374240408  1.0000
  C   C18       1.0  0.12481775379202811  0.4184543348043277  0.7489543403295363  1.0000
  C   C19       1.0  0.3723090294121323  0.5826825973455135  0.2517502711998447  1.0000
  C   C20       1.0  0.8755570607828499  0.9177033211244534  0.751042657611661  1.0000
  C   C21       1.0  0.49603961151302356  0.10329222221056648  0.2796214837619757  1.0000
  C   C22       1.0  0.9941561298739968  0.39809094905343523  0.7178853943615274  1.0000
  C   C23       1.0  0.5038807758831826  0.6027811102467217  0.22229124499891628  1.0000
  C   C24       1.0  0.006304661690062163  0.8976849564114292  0.7817497590948905  1.0000
  C   C25       1.0  0.11414111950646354  0.9666753300252188  0.21841396941891408  1.0000
  C   C26       1.0  0.6089045461456069  0.5321388622232734  0.7713603785756808  1.0000
  C   C27       1.0  0.8864361527489611  0.4673579537703258  0.2792962592527518  1.0000
  C   C28       1.0  0.39132585141892245  0.032903353375371445  0.7287721948562842  1.0000
  C   C29       1.0  0.007738011553918683  0.9840679140200841  0.3203136119391628  1.0000
  C   C30       1.0  0.5049759055315238  0.512942721638888  0.6693768264261556  1.0000
  C   C31       1.0  0.9917546479091228  0.4852345531024867  0.1758675825228893  1.0000
  C   C32       1.0  0.49500140783906854  0.013960767838463868  0.8312063116340338  1.0000
  C   C33       1.0  0.9986482756458244  0.07972431285272316  0.406991404523816  1.0000
  C   C34       1.0  0.49880644512502786  0.4164689944718084  0.5845399678415201  1.0000
  C   C35       1.0  3.144846264541661e-05  0.5812609818368671  0.08987150944987957  1.0000
  C   C36       1.0  0.500943180001994  0.9175898775667509  0.9163735421074853  1.0000
  C   C37       1.0  0.09496563129813457  0.1577185276444457  0.39056732958333645  1.0000
  C   C38       1.0  0.5957076547812759  0.33950441902643674  0.6026408338703435  1.0000
  C   C39       1.0  0.9037990509894039  0.6590484840426775  0.10825993308303905  1.0000
  C   C40       1.0  0.4042570935255988  0.840394650901629  0.8978639403331792  1.0000
  C   C41       1.0  0.20316681769687567  0.13998417004530617  0.2899682247523776  1.0000
  C   C42       1.0  0.7015468968349142  0.3590684946030039  0.7031485772771435  1.0000
  C   C43       1.0  0.7964718670663837  0.640717362686891  0.210057269215664  1.0000
  C   C44       1.0  0.29876676620205733  0.8595984572299658  0.7966623149300562  1.0000
  C   C45       1.0  0.30098199977194245  0.22743898007925015  0.2710785849911413  1.0000
  C   C46       1.0  0.7998598547010377  0.27249455708835163  0.7236742848539969  1.0000
  C   C47       1.0  0.6983609904684646  0.7277503194965037  0.23017931412549378  1.0000
  C   C48       1.0  0.2008756642607391  0.7726499278890159  0.7755386305322454  1.0000
  C   C49       1.0  0.439742978442986  0.20115818704874225  0.23493637303274742  1.0000
  C   C50       1.0  0.9372770464317343  0.29988652806266913  0.7618243826198505  1.0000
  C   C51       1.0  0.5598389615861525  0.7008416566230478  0.26681314263800493  1.0000
  C   C52       1.0  0.06332045809273225  0.7996203313140908  0.7378034073386444  1.0000
  O   O1        1.0  0.2669488590872724  0.322028654511764  0.2864470600918051  1.0000
  O   O2        1.0  0.7674139742756106  0.17759882165129137  0.7079965090902166  1.0000
  O   O3        1.0  0.7318282617316663  0.8225351745373307  0.21487397279393985  1.0000
  O   O4        1.0  0.2338481375252371  0.677840013130034  0.7905058921373261  1.0000
  H   H1        1.0  0.29448870555491  0.03003055226792554  0.12185858461990409  1.0000
  H   H2        1.0  0.7879005413425658  0.4712703450087231  0.8693705836138719  1.0000
  H   H3        1.0  0.7069550157736709  0.5300155854163853  0.37878936702599153  1.0000
  H   H4        1.0  0.21280393346396834  0.9716892426234062  0.6298645239852406  1.0000
  H   H5        1.0  0.47376139289498737  0.35687979348750476  0.13080448533687605  1.0000
  H   H6        1.0  0.9695139266913345  0.14433131650996264  0.8661395114233106  1.0000
  H   H7        1.0  0.5253123156240792  0.856494100254302  0.37060778985470516  1.0000
  H   H8        1.0  0.031433912426007286  0.6440639145363004  0.633468364618042  1.0000
  H   H9        1.0  0.7100873942411331  0.3222284011868675  0.0761708286948341  1.0000
  H   H10       1.0  0.20388394763842058  0.18036335165591677  0.9242397620895825  1.0000
  H   H11       1.0  0.28910167136984505  0.8211355429666941  0.4252769695845363  1.0000
  H   H12       1.0  0.7968200564166333  0.6794393575468718  0.5758228635423178  1.0000
  H   H13       1.0  0.8079008415214707  0.14663335967398572  0.15351996753617797  1.0000
  H   H14       1.0  0.3026638447273738  0.35652159749547657  0.8483387170980495  1.0000
  H   H15       1.0  0.1918976330062169  0.6451027082777424  0.3485700278214383  1.0000
  H   H16       1.0  0.6976314113323036  0.8553053050286576  0.6524459189097999  1.0000
  H   H17       1.0  0.6703865705077626  0.00621179445658818  0.28292944590256847  1.0000
  H   H18       1.0  0.1680731950640433  0.4960645813879491  0.716865067944082  1.0000
  H   H19       1.0  0.32982031504743414  0.5051271291566283  0.21907847486008514  1.0000
  H   H20       1.0  0.8322433777748018  0.9952038340804802  0.7832705097430536  1.0000
  H   H21       1.0  0.4360889453333061  0.042618921282456645  0.3401618936110986  1.0000
  H   H22       1.0  0.9356256213619928  0.4583839354927503  0.6563154404914807  1.0000
  H   H23       1.0  0.5640450514637303  0.5423830683387727  0.16162403641031564  1.0000
  H   H24       1.0  0.06490797043228021  0.9581095836544363  0.843045630101133  1.0000
  H   H25       1.0  0.12160054265999456  0.8919379998416179  0.15017854018161636  1.0000
  H   H26       1.0  0.6138497966122536  0.6074102391714562  0.8384545645676519  1.0000
  H   H27       1.0  0.8798881811963378  0.39242558480812395  0.3472473059549232  1.0000
  H   H28       1.0  0.38661540212972  0.10812646026144945  0.6614756093514542  1.0000
  H   H29       1.0  0.9311640648426407  0.9230274379276208  0.33101939474984843  1.0000
  H   H30       1.0  0.4281222144343582  0.5733525411931772  0.6573680452286695  1.0000
  H   H31       1.0  0.06820718893726128  0.4242999439553919  0.1635619164258497  1.0000
  H   H32       1.0  0.5719286369056189  0.07438042647569831  0.8432496461450433  1.0000
  H   H33       1.0  0.9153614254242953  0.09363089641122327  0.4874158470701849  1.0000
  H   H34       1.0  0.4172361572269421  0.40118365814907275  0.5043803701363614  1.0000
  H   H35       1.0  0.08266379555788159  0.5955325511244262  0.008504943920442822  1.0000
  H   H36       1.0  0.5822033458908434  0.9025216856837861  0.9970631748968096  1.0000
  H   H37       1.0  0.08857700346297305  0.2337952183907443  0.45586034514248386  1.0000
  H   H38       1.0  0.5917074893059165  0.26280651612708605  0.5387817477609277  1.0000
  H   H39       1.0  0.909568624569822  0.7353677036268257  0.04342937727390596  1.0000
  H   H40       1.0  0.40845000577890295  0.7636625279747539  0.9616490254294919  1.0000
