# CIF file generated from CASTEP cell file
# https://gist.github.com/blake-armstrong/93facdde07a6e0a1ddb51857dd48e3f1
# Structure converted from CASTEP

data_structure

_cell_length_a    10.266277067208501
_cell_length_b    12.051226878351800
_cell_length_c    7.712185042495950
_cell_angle_alpha 90.000000000000000
_cell_angle_beta  90.000000000000000
_cell_angle_gamma 90.000000000000000

_symmetry_space_group_name_H-M 'P 1'
_symmetry_Int_Tables_number 1

loop_
_atom_site_label
_atom_site_type_symbol
_atom_site_fract_x
_atom_site_fract_y
_atom_site_fract_z
H1       H     0.300092448435937    0.007483539828871    0.140406137899546
H2       H     0.800092448435938    0.492516460171129    0.859593862100454
H3       H     0.699907551564063    0.507483539828871    0.359593862100454
H4       H     0.199907551564063    0.992516460171129    0.640406137899546
H5       H     0.463084147236137    0.348008814180782    0.103734484205236
H6       H     0.963084147236138    0.151991185819218    0.896265515794763
H7       H     0.536915852763862    0.848008814180781    0.396265515794764
H8       H     0.036915852763862    0.651991185819219    0.603734484205237
H9       H     0.700392937098476    0.320051875444771    0.054685129636597
H10      H     0.200392937098476    0.179948124555229    0.945314870363402
H11      H     0.299607062901524    0.820051875444771    0.445314870363403
H12      H     0.799607062901524    0.679948124555229    0.554685129636598
H13      H     0.810131147328606    0.151453510492889    0.171156174784367
H14      H     0.310131147328606    0.348546489507111    0.828843825215633
H15      H     0.189868852671394    0.651453510492889    0.328843825215633
H16      H     0.689868852671394    0.848546489507111    0.671156174784367
H17      H     0.681970929241122    0.010219180389635    0.331368423393589
H18      H     0.181970929241122    0.489780819610365    0.668631576606411
H19      H     0.318029070758879    0.510219180389636    0.168631576606411
H20      H     0.818029070758878    0.989780819610364    0.831368423393589
H21      H     0.445373295417671    0.038516132309980    0.380017145447035
H22      H     0.945373295417672    0.461483867690020    0.619982854552965
H23      H     0.554626704582328    0.538516132309980    0.119982854552965
H24      H     0.054626704582329    0.961483867690020    0.880017145447035
H25      H     0.126068578818830    0.866728673569555    0.170879005591998
H26      H     0.626068578818830    0.633271326430445    0.829120994408003
H27      H     0.873931421181170    0.366728673569554    0.329120994408001
H28      H     0.373931421181170    0.133271326430446    0.670879005591997
H29      H     0.929727323355626    0.906350358015749    0.347658596894107
H30      H     0.429727323355626    0.593649641984251    0.652341403105891
H31      H     0.070272676644375    0.406350358015749    0.152341403105893
H32      H     0.570272676644374    0.093649641984251    0.847658596894109
H33      H     0.909635968097571    0.088053263739748    0.502172809639465
H34      H     0.409635968097571    0.411946736260252    0.497827190360534
H35      H     0.090364031902429    0.588053263739748   -0.002172809639465
H36      H     0.590364031902429    0.911946736260252    1.002172809639465
H37      H     0.082670273863369    0.231458750292096    0.465097291887416
H38      H     0.582670273863369    0.268541249707904    0.534902708112584
H39      H     0.917329726136631    0.731458750292097    0.034902708112584
H40      H     0.417329726136631    0.768541249707903    0.965097291887416
C1       C     0.215183543135364    0.025364200975460    0.220216234368507
C2       C     0.715183543135364    0.474635799024540    0.779783765631492
C3       C     0.784816456864636    0.525364200975460    0.279783765631493
C4       C     0.284816456864636    0.974635799024540    0.720216234368508
C5       C     0.511982044108665    0.274065347085268    0.151849395635638
C6       C     0.011982044108666    0.225934652914732    0.848150604364363
C7       C     0.488017955891335    0.774065347085269    0.348150604364363
C8       C     0.988017955891335    0.725934652914731    0.651849395635637
C9       C     0.644521590345789    0.258168244968062    0.125138109854284
C10      C     0.144521590345790    0.241831755031938    0.874861890145716
C11      C     0.355478409654210    0.758168244968062    0.374861890145717
C12      C     0.855478409654211    0.741831755031938    0.625138109854284
C13      C     0.706005588701723    0.163439604070345    0.190563840610132
C14      C     0.206005588701723    0.336560395929655    0.809436159389868
C15      C     0.293994411298277    0.663439604070345    0.309436159389868
C16      C     0.793994411298277    0.836560395929655    0.690563840610132
C17      C     0.634209564991942    0.084277993192449    0.281750970447784
C18      C     0.134209564991941    0.415722006807552    0.718249029552216
C19      C     0.365790435008059    0.584277993192448    0.218249029552216
C20      C     0.865790435008058    0.915722006807551    0.781750970447784
C21      C     0.500801210254964    0.099417897274223    0.306697743778704
C22      C     0.000801210254964    0.400582102725778    0.693302256221297
C23      C     0.499198789745037    0.599417897274222    0.193302256221297
C24      C     0.999198789745035    0.900582102725778    0.806697743778703
C25      C     0.116602147080025    0.946281122803838    0.236542740845890
C26      C     0.616602147080025    0.553718877196162    0.763457259154110
C27      C     0.883397852919975    0.446281122803838    0.263457259154110
C28      C     0.383397852919975    0.053718877196162    0.736542740845890
C29      C     0.006316869736791    0.968458396811159    0.336837397554762
C30      C     0.506316869736791    0.531541603188841    0.663162602445238
C31      C     0.993683130263209    0.468458396811159    0.163162602445237
C32      C     0.493683130263208    0.031541603188841    0.836837397554762
C33      C     0.994223872213174    0.070879063048442    0.421246722764216
C34      C     0.494223872213174    0.429120936951558    0.578753277235784
C35      C     0.005776127786826    0.570879063048441    0.078753277235784
C36      C     0.505776127786826    0.929120936951559    0.921246722764216
C37      C     0.090958727903452    0.150910631509376    0.402303433068412
C38      C     0.590958727903451    0.349089368490624    0.597696566931588
C39      C     0.909041272096549    0.650910631509376    0.097696566931588
C40      C     0.409041272096548    0.849089368490624    0.902303433068412
C41      C     0.202562891495983    0.128837249182400    0.302507670467937
C42      C     0.702562891495983    0.371162750817600    0.697492329532063
C43      C     0.797437108504017    0.628837249182400    0.197492329532063
C44      C     0.297437108504017    0.871162750817600    0.802507670467937
C45      C     0.298924704375052    0.220144756786462    0.279086061667312
C46      C     0.798924704375051    0.279855243213538    0.720913938332688
C47      C     0.701075295624949    0.720144756786462    0.220913938332688
C48      C     0.201075295624949    0.779855243213538    0.779086061667312
C49      C     0.438502051521721    0.194763520001122    0.242794623021775
C50      C     0.938502051521721    0.305236479998878    0.757205376978225
C51      C     0.561497948478279    0.694763520001123    0.257205376978226
C52      C     0.061497948478279    0.805236479998877    0.742794623021774
O1       O     0.262955542110619    0.317909172591387    0.289577367484963
O2       O     0.762955542110619    0.182090827408613    0.710422632515037
O3       O     0.737044457889381    0.817909172591385    0.210422632515037
O4       O     0.237044457889381    0.682090827408615    0.789577367484963
