data_BPHENO10.b3lyp.6-311G**.dma4.-91.9432.1.2329
_audit_creation_method 'generated by cspy2.0'
_cell_length_a 10.1962
_cell_length_b 12.0419
_cell_length_c 7.9952
_cell_angle_alpha 90.0
_cell_angle_beta 90.0
_cell_angle_gamma 90.0
loop_
_symmetry_equiv_pos_site_id
_symmetry_equiv_pos_as_xyz
1 +x,+y,+z
loop_
_atom_site_label
_atom_site_type_symbol
_atom_site_fract_x
_atom_site_fract_y
_atom_site_fract_z
_atom_site_occupancy
C1 C       0.214026030000       0.026523030000       0.217962730000       1.000000000000
C2 C       0.511277580000       0.272662020000       0.149576080000       1.000000000000
C3 C       0.646193200000       0.254203310000       0.124071190000       1.000000000000
C4 C       0.706913580000       0.163438950000       0.191599400000       1.000000000000
C5 C       0.638591020000       0.087405350000       0.280852740000       1.000000000000
C6 C       0.503803100000       0.101533900000       0.308104080000       1.000000000000
C7 C       0.115802120000      -0.053889330000       0.237002900000       1.000000000000
C8 C       0.008683460000      -0.033676410000       0.334255620000       1.000000000000
C9 C      -0.003828200000       0.065451540000       0.418998440000       1.000000000000
C10 C       0.092254810000       0.149693330000       0.400724430000       1.000000000000
C11 C       0.202410850000       0.127872810000       0.302379340000       1.000000000000
C12 C       0.299560580000       0.218244640000       0.277833620000       1.000000000000
C13 C       0.440955080000       0.194320460000       0.243262280000       1.000000000000
C14 C       0.784193000000       0.526523030000       0.279070300000       1.000000000000
C15 C       0.486941460000       0.772662020000       0.347456960000       1.000000000000
C16 C       0.352025830000       0.754203310000       0.372961840000       1.000000000000
C17 C       0.291305460000       0.663438950000       0.305433650000       1.000000000000
C18 C       0.359628010000       0.587405340000       0.216180290000       1.000000000000
C19 C       0.494415930000       0.601533900000       0.188928960000       1.000000000000
C20 C       0.882416920000       0.446110670000       0.260030150000       1.000000000000
C21 C       0.989535570000       0.466323590000       0.162777410000       1.000000000000
C22 C       1.002047240000       0.565451540000       0.078034610000       1.000000000000
C23 C       0.905964220000       0.649693330000       0.096308610000       1.000000000000
C24 C       0.795808190000       0.627872810000       0.194653700000       1.000000000000
C25 C       0.698658470000       0.718244650000       0.219199410000       1.000000000000
C26 C       0.557263960000       0.694320460000       0.253770760000       1.000000000000
C27 C       0.284193010000       0.977414210000       0.717962740000       1.000000000000
C28 C      -0.013058550000       0.731275220000       0.649576080000       1.000000000000
C29 C      -0.147974170000       0.749733920000       0.624071200000       1.000000000000
C30 C      -0.208694540000       0.840498290000       0.691599400000       1.000000000000
C31 C      -0.140372000000       0.916531890000       0.780852750000       1.000000000000
C32 C      -0.005584070000       0.902403330000       0.808104090000       1.000000000000
C33 C       0.382416920000       1.057826560000       0.737002890000       1.000000000000
C34 C       0.489535570000       1.037613650000       0.834255620000       1.000000000000
C35 C       0.502047230000       0.938485690000       0.918998440000       1.000000000000
C36 C       0.405964200000       0.854243900000       0.900724430000       1.000000000000
C37 C       0.295808190000       0.876064420000       0.802379340000       1.000000000000
C38 C       0.198658460000       0.785692590000       0.777833620000       1.000000000000
C39 C       0.057263960000       0.809616780000       0.743262290000       1.000000000000
C40 C       0.714026020000       0.477414210000       0.779070300000       1.000000000000
C41 C       1.011277570000       0.231275210000       0.847456960000       1.000000000000
C42 C       1.146193200000       0.249733920000       0.872961840000       1.000000000000
C43 C       1.206913580000       0.340498290000       0.805433650000       1.000000000000
C44 C       1.138591020000       0.416531890000       0.716180290000       1.000000000000
C45 C       1.003803100000       0.402403330000       0.688928960000       1.000000000000
C46 C       0.615802120000       0.557826560000       0.760030140000       1.000000000000
C47 C       0.508683460000       0.537613640000       0.662777420000       1.000000000000
C48 C       0.496171800000       0.438485700000       0.578034610000       1.000000000000
C49 C       0.592254820000       0.354243900000       0.596308600000       1.000000000000
C50 C       0.702410850000       0.376064420000       0.694653700000       1.000000000000
C51 C       0.799560570000       0.285692580000       0.719199410000       1.000000000000
C52 C       0.940955080000       0.309616780000       0.753770760000       1.000000000000
O1 O       0.263186160000       0.315517030000       0.287416300000       1.000000000000
O2 O       0.735032880000       0.815517030000       0.209616740000       1.000000000000
O3 O       0.235032880000       0.688420210000       0.787416300000       1.000000000000
O4 O       0.763186160000       0.188420210000       0.709616740000       1.000000000000
H1 H       0.298522760000       0.010322640000       0.138306110000       1.000000000000
H2 H       0.462973070000       0.345690600000       0.098004890000       1.000000000000
H3 H       0.702799240000       0.312890020000       0.049718500000       1.000000000000
H4 H       0.811902460000       0.152127120000       0.173298720000       1.000000000000
H5 H       0.688555890000       0.014955750000       0.331697640000       1.000000000000
H6 H       0.448822560000       0.040216980000       0.379568890000       1.000000000000
H7 H       0.125188800000      -0.133444300000       0.173345710000       1.000000000000
H8 H      -0.067757080000      -0.096421690000       0.345134190000       1.000000000000
H9 H      -0.087931810000       0.079126060000       0.500387720000       1.000000000000
H10 H       0.080366920000       0.229780050000       0.462148710000       1.000000000000
H11 H       0.699696280000       0.510322640000       0.358726940000       1.000000000000
H12 H       0.535245970000       0.845690600000       0.399028150000       1.000000000000
H13 H       0.295419800000       0.812890020000       0.447314540000       1.000000000000
H14 H       0.186316580000       0.652127120000       0.323734320000       1.000000000000
H15 H       0.309663150000       0.514955750000       0.165335390000       1.000000000000
H16 H       0.549396470000       0.540216980000       0.117464150000       1.000000000000
H17 H       0.873030240000       0.366555700000       0.323687340000       1.000000000000
H18 H       1.065976120000       0.403578310000       0.151898860000       1.000000000000
H19 H       1.086150850000       0.579126060000      -0.003354680000       1.000000000000
H20 H       0.917852120000       0.729780050000       0.034884340000       1.000000000000
H21 H       0.199696280000       0.993614610000       0.638306110000       1.000000000000
H22 H       0.035245970000       0.658246640000       0.598004900000       1.000000000000
H23 H      -0.204580200000       0.691047220000       0.549718510000       1.000000000000
H24 H      -0.313683420000       0.851810120000       0.673298720000       1.000000000000
H25 H      -0.190336850000       0.988981480000       0.831697640000       1.000000000000
H26 H       0.049396470000       0.963720250000       0.879568890000       1.000000000000
H27 H       0.373030240000       1.137381530000       0.673345700000       1.000000000000
H28 H       0.565976120000       1.100358920000       0.845134190000       1.000000000000
H29 H       0.586150850000       0.924811170000       1.000387720000       1.000000000000
H30 H       0.417852120000       0.774157180000       0.962148710000       1.000000000000
H31 H       0.798522760000       0.493614600000       0.858726940000       1.000000000000
H32 H       0.962973070000       0.158246630000       0.899028150000       1.000000000000
H33 H       1.202799240000       0.191047210000       0.947314540000       1.000000000000
H34 H       1.311902450000       0.351810120000       0.823734320000       1.000000000000
H35 H       1.188555890000       0.488981490000       0.665335400000       1.000000000000
H36 H       0.948822560000       0.463720260000       0.617464150000       1.000000000000
H37 H       0.625188800000       0.637381530000       0.823687330000       1.000000000000
H38 H       0.432242920000       0.600358920000       0.651898850000       1.000000000000
H39 H       0.412068190000       0.424811170000       0.496645320000       1.000000000000
H40 H       0.580366920000       0.274157180000       0.534884330000       1.000000000000
#END