data_image0
_chemical_formula_structural       C52O4H40
_chemical_formula_sum              "C52 O4 H40"
_cell_length_a       10.3
_cell_length_b       12.15
_cell_length_c       8.0
_cell_angle_alpha    90.0
_cell_angle_beta     90.0
_cell_angle_gamma    90.0

_space_group_name_H-M_alt    "P 1"
_space_group_IT_number       1

loop_
  _space_group_symop_operation_xyz
  'x, y, z'

loop_
  _atom_site_type_symbol
  _atom_site_label
  _atom_site_symmetry_multiplicity
  _atom_site_fract_x
  _atom_site_fract_y
  _atom_site_fract_z
  _atom_site_occupancy
  C   C1        1.0  0.21350552194245134  0.028671951430964085  0.21761338355623047  1.0000
  C   C2        1.0  0.7135054328315581  0.471328085249659  0.7823864717778369  1.0000
  C   C3        1.0  0.7864944796636898  0.5286719711180061  0.2823865431209319  1.0000
  C   C4        1.0  0.2864945299685703  0.9713280252163746  0.7176135113250589  1.0000
  C   C5        1.0  0.5118358209048653  0.27347926076454293  0.1527809842716275  1.0000
  C   C6        1.0  0.011836001443277837  0.2265207177867088  0.8472190386722096  1.0000
  C   C7        1.0  0.48816400887221334  0.7734793202487199  0.3472191117488796  1.0000
  C   C8        1.0  0.9881638998822714  0.7265208850187043  0.6527810399154654  1.0000
  C   C9        1.0  0.6436583787373925  0.2567238208561309  0.12503805559418826  1.0000
  C   C10       1.0  0.14365824259712834  0.24327622751540098  0.8749618393986017  1.0000
  C   C11       1.0  0.35634163060439117  0.7567237522794819  0.37496192813571894  1.0000
  C   C12       1.0  0.8563418814164147  0.7432762058673686  0.6250380953944438  1.0000
  C   C13       1.0  0.704609417664022  0.16232415342846965  0.1874276477287275  1.0000
  C   C14       1.0  0.20460952356516565  0.337675828398142  0.8125725300561562  1.0000
  C   C15       1.0  0.29539049267636236  0.6623242009426062  0.3125724409418758  1.0000
  C   C16       1.0  0.7953904156033587  0.8376758351056561  0.6874275622228603  1.0000
  C   C17       1.0  0.6330498571018127  0.08447772271983768  0.2769121125250623  1.0000
  C   C18       1.0  0.13304968188998184  0.4155223302843673  0.7230878473910832  1.0000
  C   C19       1.0  0.3669503287098202  0.584477564466066  0.22308778805496676  1.0000
  C   C20       1.0  0.8669503018273754  0.9155222777560751  0.7769121129443181  1.0000
  C   C21       1.0  0.5004068724245253  0.10057686469853168  0.3031528699999774  1.0000
  C   C22       1.0  0.00040692987396963553  0.399423125213841  0.6968471629670312  1.0000
  C   C23       1.0  0.49959310830705406  0.6005769600658291  0.19684723601495985  1.0000
  C   C24       1.0  0.9995930787067723  0.8994231991254158  0.8031529001863624  1.0000
  C   C25       1.0  0.11510696380844322  0.9502672981235304  0.23339427115121852  1.0000
  C   C26       1.0  0.61510717917074  0.5497325997276061  0.7666057920210898  1.0000
  C   C27       1.0  0.8848929900063122  0.4502673369704772  0.26660576621741766  1.0000
  C   C28       1.0  0.38489292287858323  0.04973263389522609  0.7333941635056815  1.0000
  C   C29       1.0  0.006814522819817843  0.9712757281022333  0.33374779454514136  1.0000
  C   C30       1.0  0.5068144664964557  0.5287242368509498  0.6662521393833228  1.0000
  C   C31       1.0  0.9931854408586379  0.4712757684322226  0.16625220372744398  1.0000
  C   C32       1.0  0.4931855066807438  0.028724271430317333  0.8337478607241539  1.0000
  C   C33       1.0  0.9966125615114171  0.0718035170905995  0.41870778966878563  1.0000
  C   C34       1.0  0.4966125870560326  0.4281965328870748  0.5812923193133204  1.0000
  C   C35       1.0  0.003387474573174412  0.5718033994935193  0.08129227157352914  1.0000
  C   C36       1.0  0.5033874836333283  0.928196563769613  0.9187076423755649  1.0000
  C   C37       1.0  0.09314710420798034  0.1512121521074457  0.4004313282660429  1.0000
  C   C38       1.0  0.593147038028448  0.3487879012791073  0.5995686089328506  1.0000
  C   C39       1.0  0.9068529691405116  0.6512121139259354  0.09956857673098274  1.0000
  C   C40       1.0  0.40685298899942773  0.84878776126317  0.9004314602433307  1.0000
  C   C41       1.0  0.20282445188937898  0.13037925480636534  0.30044789178243664  1.0000
  C   C42       1.0  0.7028245604297844  0.3696207651630693  0.6995521608116879  1.0000
  C   C43       1.0  0.7971755591100271  0.6303792352703068  0.19955208688915232  1.0000
  C   C44       1.0  0.2971754961903117  0.8696207457060957  0.800447819765193  1.0000
  C   C45       1.0  0.2993063268185984  0.22087821962614115  0.277711853810291  1.0000
  C   C46       1.0  0.799306347303598  0.2791218243196323  0.7222882076742794  1.0000
  C   C47       1.0  0.7006936878465229  0.7208781847465608  0.22228816118716294  1.0000
  C   C48       1.0  0.2006936485298402  0.7791218221813185  0.7777118716488927  1.0000
  C   C49       1.0  0.43845476916941867  0.19543703941253365  0.2418507183113199  1.0000
  C   C50       1.0  0.9384547367048011  0.304562986578467  0.7581492225336988  1.0000
  C   C51       1.0  0.5615453206432826  0.695436958302009  0.2581491629821422  1.0000
  C   C52       1.0  0.06154526194968074  0.8045628648486645  0.7418506476406292  1.0000
  O   O1        1.0  0.26358046625803355  0.3182170601622789  0.288315092378563  1.0000
  O   O2        1.0  0.7635804159681973  0.1817829037932016  0.7116849215869555  1.0000
  O   O3        1.0  0.7364195235863986  0.8182170346958098  0.21168486367624462  1.0000
  O   O4        1.0  0.23641948891170053  0.6817829357131906  0.7883151706462664  1.0000
  H   H1        1.0  0.29705769552047184  0.011526882317414217  0.13797014040706862  1.0000
  H   H2        1.0  0.7970577819942567  0.48847309704416736  0.8620298752763718  1.0000
  H   H3        1.0  0.702942247178248  0.5115269139083196  0.36202988284416343  1.0000
  H   H4        1.0  0.20294229230777383  0.98847314254091  0.6379701080851048  1.0000
  H   H5        1.0  0.4633754332169882  0.3471364344168771  0.1063721599287977  1.0000
  H   H6        1.0  0.9633753998561486  0.15286354082518003  0.8936278157346269  1.0000
  H   H7        1.0  0.5366245285297033  0.8471364651747528  0.39362783188629713  1.0000
  H   H8        1.0  0.036624581496630004  0.652863473563593  0.606372068935551  1.0000
  H   H9        1.0  0.6994250055939176  0.3175865267690475  0.055574968582666626  1.0000
  H   H10       1.0  0.19942501681112038  0.18241350654316096  0.944424989818012  1.0000
  H   H11       1.0  0.3005750245730987  0.8175865038315163  0.444425056937641  1.0000
  H   H12       1.0  0.8005750068194393  0.6824134603075943  0.5555749965989688  1.0000
  H   H13       1.0  0.8081877020480988  0.14950749176358688  0.1667442101560206  1.0000
  H   H14       1.0  0.30818762965271784  0.3504925438374604  0.8332558435531658  1.0000
  H   H15       1.0  0.19181234024170515  0.6495074521300909  0.3332558772277756  1.0000
  H   H16       1.0  0.6918124235401685  0.8504925231077931  0.6667442628906834  1.0000
  H   H17       1.0  0.6803414208880042  0.010481835495516558  0.3239777140668149  1.0000
  H   H18       1.0  0.1803413531914328  0.4895182023890361  0.6760223529966243  1.0000
  H   H19       1.0  0.31965858134439695  0.510481816948019  0.1760223054359063  1.0000
  H   H20       1.0  0.8196585220994486  0.9895182007555012  0.8239776995223747  1.0000
  H   H21       1.0  0.44514828903954234  0.040434573466135916  0.37485567905829903  1.0000
  H   H22       1.0  0.945148271851973  0.45956540038226  0.6251442908016149  1.0000
  H   H23       1.0  0.5548517354566546  0.5404345411552769  0.12514428334591848  1.0000
  H   H24       1.0  0.05485169276113621  0.9595654611485493  0.8748556764078042  1.0000
  H   H25       1.0  0.12322902550759046  0.8720653253402002  0.16730851952552755  1.0000
  H   H26       1.0  0.6232291036854593  0.627934692460141  0.8326915695215924  1.0000
  H   H27       1.0  0.876770945781428  0.37206538195750394  0.332691516169951  1.0000
  H   H28       1.0  0.37677089494897426  0.1279346792136407  0.6673083891952494  1.0000
  H   H29       1.0  0.930274093009009  0.9096307286163563  0.3443651953211967  1.0000
  H   H30       1.0  0.43027407886642155  0.5903692474147624  0.6556348003793829  1.0000
  H   H31       1.0  0.06972594279184824  0.40963078128560626  0.15563480784889328  1.0000
  H   H32       1.0  0.5697259244738717  0.09036923036254131  0.8443652348963914  1.0000
  H   H33       1.0  0.9135437524161663  0.0879975440735119  0.4997253386398182  1.0000
  H   H34       1.0  0.41354372737069095  0.4120024195540359  0.5002746188288025  1.0000
  H   H35       1.0  0.08645622030124443  0.5879975574614611  0.00027469297597265685  1.0000
  H   H36       1.0  0.5864562777896982  0.9120024835119303  0.9997253067298857  1.0000
  H   H37       1.0  0.08606266462836787  0.23032497934698426  0.46411882302213364  1.0000
  H   H38       1.0  0.58606265453833  0.26967500571399655  0.5358811361731166  1.0000
  H   H39       1.0  0.9139373235965897  0.7303250009398774  0.03588111089395646  1.0000
  H   H40       1.0  0.41393732070417577  0.7696750175868787  0.964118791189208  1.0000
