data_cif

_audit_creation_method             'generated by GULP'

_symmetry_space_group_name_H-M     'P 21 21 21      '
_symmetry_Int_Tables_number        19
_symmetry_cell_setting             Orthorhombic

_cell_length_a                      10.338499
_cell_length_b                      11.852757
_cell_length_c                       7.604973
_cell_angle_alpha                   90.000000
_cell_angle_beta                    90.000000
_cell_angle_gamma                   90.000000

loop_
_atom_site_label
_atom_site_fract_x
_atom_site_fract_y
_atom_site_fract_z
_atom_site_occupancy
  C1          0.22553      0.01536      0.22278  1.0000
  C1          0.51422      0.26766      0.15307  1.0000
  C1          0.64624      0.24915      0.12242  1.0000
  C1          0.70766      0.15396      0.19302  1.0000
  C1          0.63690      0.07775      0.29602  1.0000
  C1          0.50454      0.09574      0.32652  1.0000
  C1          0.13281      0.92926      0.23587  1.0000
  C1          0.01797      0.94750      0.32943  1.0000
  C1          0.99541      0.05217      0.40938  1.0000
  C1          0.08783      0.13847      0.39638  1.0000
  C1          0.20475      0.12046      0.30520  1.0000
  C2          0.30122      0.21570      0.29056  1.0000
  C1          0.44169      0.19070      0.25410  1.0000
  O4          0.26562      0.31322      0.30672  1.0000
  H3          0.31273      0.00038      0.14670  1.0000
  H3          0.46778      0.34192      0.09801  1.0000
  H3          0.70104      0.30903      0.04444  1.0000
  H3          0.80994      0.13951      0.16900  1.0000
  H3          0.68512      0.00493      0.35296  1.0000
  H3          0.45174      0.03637      0.40820  1.0000
  H3          0.14956      0.84844      0.17228  1.0000
  H3          0.94619      0.88088      0.33949  1.0000
  H3          0.90629      0.06616      0.48197  1.0000
  H3          0.06931      0.21945      0.45854  1.0000
