# CIF file generated from CASTEP cell file
# https://gist.github.com/blake-armstrong/93facdde07a6e0a1ddb51857dd48e3f1
# Structure converted from CASTEP

data_structure

_cell_length_a    3.849416700737120
_cell_length_b    13.101225680843299
_cell_length_c    13.880550069994401
_cell_angle_alpha 90.000000000000000
_cell_angle_beta  90.000000000000000
_cell_angle_gamma 90.000000000000000

_symmetry_space_group_name_H-M 'P 1'
_symmetry_Int_Tables_number 1

loop_
_atom_site_label
_atom_site_type_symbol
_atom_site_fract_x
_atom_site_fract_y
_atom_site_fract_z
H1       H     0.388128779644217    0.649571964470789    0.207343797524853
H2       H     0.462955359109782    0.977850988691362    0.216575364491340
H3       H     0.013525442274736    0.814616448667122    0.456619872289400
H4       H     0.111871220355782    0.350428035529211    0.707343797524853
H5       H     0.037044640890217    0.022149011308638    0.716575364491340
H6       H     0.486474557725263    0.185383551332879    0.956619872289400
H7       H     0.888128779644217    0.850428035529211    0.792656202475147
H8       H     0.962955359109782    0.522149011308638    0.783424635508660
H9       H     0.513525442274735    0.685383551332878    0.543380127710600
H10      H     0.611871220355783    0.149571964470789    0.292656202475147
H11      H     0.537044640890217    0.477850988691363    0.283424635508659
H12      H     0.986474557725264    0.314616448667121    0.043380127710600
C1       C     0.193760641241961    0.722984253359898    0.336478522123845
C2       C     0.346333321798608    0.720861317898203    0.245455126280448
C3       C     0.442132386545736    0.813648150377945    0.204055764596803
C4       C     0.388111741004555    0.906602461432658    0.250631159985290
C5       C     0.233898373869990    0.904835696653062    0.341481169235512
C6       C     0.135306588415537    0.813901427424581    0.386100245847095
C7       C     0.306239358758038    0.277015746640104    0.836478522123845
C8       C     0.153666678201391    0.279138682101797    0.745455126280447
C9       C     0.057867613454263    0.186351849622054    0.704055764596803
C10      C     0.111888258995446    0.093397538567342    0.750631159985290
C11      C     0.266101626130010    0.095164303346937    0.841481169235512
C12      C     0.364693411584464    0.186098572575420    0.886100245847093
C13      C     0.693760641241961    0.777015746640102    0.663521477876155
C14      C     0.846333321798608    0.779138682101797    0.754544873719553
C15      C     0.942132386545736    0.686351849622055    0.795944235403197
C16      C     0.888111741004554    0.593397538567342    0.749368840014710
C17      C     0.733898373869990    0.595164303346938    0.658518830764488
C18      C     0.635306588415537    0.686098572575419    0.613899754152906
C19      C     0.806239358758039    0.222984253359897    0.163521477876155
C20      C     0.653666678201391    0.220861317898203    0.254544873719552
C21      C     0.557867613454263    0.313648150377946    0.295944235403197
C22      C     0.611888258995446    0.406602461432656    0.249368840014710
C23      C     0.766101626130009    0.404835696653063    0.158518830764488
C24      C     0.864693411584463    0.313901427424580    0.113899754152905
Cl1      Cl    0.072316648254455    0.608433466122220    0.390099105044206
Cl2      Cl    0.632014921032886    0.813018531924515    0.090849948064699
Cl3      Cl    0.159553158899198    1.019187055160019    0.401235376246254
Cl4      Cl    0.427683351745544    0.391566533877781    0.890099105044206
Cl5      Cl   -0.132014921032885    0.186981468075485    0.590849948064698
Cl6      Cl    0.340446841100802   -0.019187055160020    0.901235376246254
Cl7      Cl    0.572316648254455    0.891566533877781    0.609900894955794
Cl8      Cl    1.132014921032886    0.686981468075485    0.909150051935302
Cl9      Cl    0.659553158899198    0.480812944839980    0.598764623753746
Cl10     Cl    0.927683351745545    0.108433466122219    0.109900894955794
Cl11     Cl    0.367985078967115    0.313018531924516    0.409150051935302
Cl12     Cl    0.840446841100801    0.519187055160019    0.098764623753746
