data_image0
_chemical_formula_structural       Cl12C8H4C8H4C8H4
_chemical_formula_sum              "Cl12 C24 H12"
_cell_length_a       3.8422
_cell_length_b       13.0973
_cell_length_c       13.7984
_cell_angle_alpha    90.0
_cell_angle_beta     90.0
_cell_angle_gamma    90.0

_space_group_name_H-M_alt    "P 1"
_space_group_IT_number       1

loop_
  _space_group_symop_operation_xyz
  'x, y, z'

loop_
  _atom_site_type_symbol
  _atom_site_label
  _atom_site_symmetry_multiplicity
  _atom_site_fract_x
  _atom_site_fract_y
  _atom_site_fract_z
  _atom_site_occupancy
  Cl  Cl1       1.0  0.08409249804451893  0.6083374542472794  0.38869210293791756  1.0000
  Cl  Cl2       1.0  0.41590752642179274  0.3916625832216588  0.8886920181312485  1.0000
  Cl  Cl3       1.0  0.9159077051163633  0.10833737370287438  0.11130795633005537  1.0000
  Cl  Cl4       1.0  0.5840923992078062  0.8916625984032379  0.6113078602357345  1.0000
  Cl  Cl5       1.0  0.6285016986909329  0.8175459723403727  0.08850500131245202  1.0000
  Cl  Cl6       1.0  0.8714981486214481  0.18245405806360185  0.5885049547758575  1.0000
  Cl  Cl7       1.0  0.37149818246676125  0.3175458789042412  0.41149507362831894  1.0000
  Cl  Cl8       1.0  0.12850178241938623  0.6824541129207365  0.9114950002862032  1.0000
  Cl  Cl9       1.0  0.17087444560789505  0.018728175126545198  0.4049639692789904  1.0000
  Cl  Cl10      1.0  0.32912550885765934  0.9812718132707188  0.9049639867726448  1.0000
  Cl  Cl11      1.0  0.8291255209402664  0.5187281557233365  0.09503600623747335  1.0000
  Cl  Cl12      1.0  0.6708744520404833  0.48127184096581954  0.5950360045702027  1.0000
  C   C1        1.0  0.2025464824156868  0.7233992158029569  0.33586203434807665  1.0000
  C   C2        1.0  0.29745356752982716  0.2766007996779103  0.8358620569556202  1.0000
  C   C3        1.0  0.7974535238202531  0.2233991691695629  0.16413802560984117  1.0000
  C   C4        1.0  0.7025464599597697  0.7766008150222438  0.6641379090703297  1.0000
  C   C5        1.0  0.34941815330625003  0.7229147103580669  0.24344759664973004  1.0000
  C   C6        1.0  0.1505819127051119  0.27708534694461995  0.7434475445968162  1.0000
  C   C7        1.0  0.650582001311104  0.2229146472341084  0.2565524206902195  1.0000
  C   C8        1.0  0.8494182403137854  0.7770852914913655  0.7565524209623415  1.0000
  H   H1        1.0  0.38835334832769797  0.6521630284044858  0.20368250247035963  1.0000
  H   H2        1.0  0.11164673531542077  0.34783700812530316  0.7036824484801192  1.0000
  H   H3        1.0  0.6116468614170908  0.1521629448049147  0.2963175451893932  1.0000
  H   H4        1.0  0.8883532373739366  0.8478370265755634  0.7963174508115872  1.0000
  C   C9        1.0  0.44378258711020624  0.8164051335352416  0.20272061765475605  1.0000
  C   C10       1.0  0.056217384283626534  0.18359489642114848  0.7027205952781471  1.0000
  C   C11       1.0  0.556217341479816  0.3164050475786073  0.29727944682375107  1.0000
  C   C12       1.0  0.9437827246070495  0.6835949673269867  0.7972794103013271  1.0000
  C   C13       1.0  0.39207602077614784  0.9085965649329452  0.2512724253470002  1.0000
  C   C14       1.0  0.10792381991915737  0.09140352964137201  0.7512723950828437  1.0000
  C   C15       1.0  0.6079239017984465  0.40859640627586397  0.2487275988217188  1.0000
  C   C16       1.0  0.8920761751658443  0.5914035423468827  0.7487275331064851  1.0000
  H   H5        1.0  0.46454069807991805  0.9805484246057076  0.21763779951591403  1.0000
  H   H6        1.0  0.035459226869252354  0.019451552257984072  0.7176378012891441  1.0000
  H   H7        1.0  0.535459162441227  0.4805483633276748  0.2823622169309628  1.0000
  H   H8        1.0  0.964541015927036  0.5194516646155747  0.7823621500319965  1.0000
  C   C17       1.0  0.24312671820716794  0.905473417762052  0.3433845456154083  1.0000
  C   C18       1.0  0.2568732204422103  0.09452660196006613  0.8433845383408163  1.0000
  C   C19       1.0  0.7568731051446956  0.40547335203295226  0.1566154895206982  1.0000
  C   C20       1.0  0.7431268506042813  0.5945265977770883  0.6566154144296494  1.0000
  C   C21       1.0  0.1478833311780651  0.8136421374328247  0.3873835824318834  1.0000
  C   C22       1.0  0.3521165457257967  0.18635789667626457  0.8873834802287148  1.0000
  C   C23       1.0  0.8521166639023501  0.31364200521068936  0.11261653554371907  1.0000
  C   C24       1.0  0.6478833533005733  0.6863579321924795  0.6126165131713286  1.0000
  H   H9        1.0  0.030599115304692837  0.8130938211000485  0.4590642751558561  1.0000
  H   H10       1.0  0.469400854889321  0.18690621789319659  0.9590642804895735  1.0000
  H   H11       1.0  0.9694008596968743  0.31309375793683825  0.04093575945950537  1.0000
  H   H12       1.0  0.5305989877854732  0.6869061586062437  0.5409357305880381  1.0000
