data_C6H3Cl3
_audit_creation_method 'chmpy python library version 1.0a1'
_cell_length_a 3.559977
_cell_length_b 13.568941
_cell_length_c 11.534026
_cell_angle_alpha 90.0
_cell_angle_beta 90.0
_cell_angle_gamma 90.0
loop_
_symmetry_equiv_pos_site_id
_symmetry_equiv_pos_as_xyz
                   1 +x,+y,+z
                   2 -x,1/2+y,1/2-z
                   3 1/2-x,-y,1/2+z
                   4 1/2+x,1/2-y,-z
loop_
_atom_site_label
_atom_site_type_symbol
_atom_site_fract_x
_atom_site_fract_y
_atom_site_fract_z
_atom_site_occupancy
Cl Cl       0.196923000000       0.614041000000       0.385617000000       1.000000000000
Cl Cl       0.748700000000       0.833263000000       0.029363000000       1.000000000000
Cl Cl       0.146519000000       0.012961000000       0.407656000000       1.000000000000
C C       0.310147000000       0.727714000000       0.326160000000       1.000000000000
C C       0.481689000000       0.733297000000       0.216486000000       1.000000000000
H H       0.560993000000       0.665964000000       0.170526000000       1.000000000000
C C       0.551557000000       0.826109000000       0.166224000000       1.000000000000
C C       0.453072000000       0.912967000000       0.225317000000       1.000000000000
H H       0.507575000000       0.984675000000       0.185835000000       1.000000000000
C C       0.286509000000       0.907113000000       0.335518000000       1.000000000000
C C       0.215638000000       0.814624000000       0.385842000000       1.000000000000
H H       0.075817000000       0.810951000000       0.469954000000       1.000000000000
#END