data_image0
_chemical_formula_structural       Cl12C8H4C8H4C8H4
_chemical_formula_sum              "Cl12 C24 H12"
_cell_length_a       3.957541932185062
_cell_length_b       13.388968815918185
_cell_length_c       15.014000184754032
_cell_angle_alpha    89.97088068388997
_cell_angle_beta     90.04916480646158
_cell_angle_gamma    89.98553069894017

_space_group_name_H-M_alt    "P 1"
_space_group_IT_number       1

loop_
  _space_group_symop_operation_xyz
  'x, y, z'

loop_
  _atom_site_type_symbol
  _atom_site_label
  _atom_site_symmetry_multiplicity
  _atom_site_fract_x
  _atom_site_fract_y
  _atom_site_fract_z
  _atom_site_occupancy
  Cl  Cl1       1.0  0.1727318460049756  0.6257948687313135  0.3934270944556696  1.0000
  Cl  Cl2       1.0  0.3269156437579176  0.37378519697654  0.8941735358876888  1.0000
  Cl  Cl3       1.0  0.8272153192706885  0.125984493926926  0.10636495178599122  1.0000
  Cl  Cl4       1.0  0.6763940772952458  0.8739380259686252  0.6058225735761187  1.0000
  Cl  Cl5       1.0  0.5971429102444861  0.8178480392029974  0.09935992982008288  1.0000
  Cl  Cl6       1.0  0.9056542677820673  0.1831757499275593  0.5989478373509738  1.0000
  Cl  Cl7       1.0  0.4099953185878442  0.31801676207503243  0.4010477808725887  1.0000
  Cl  Cl8       1.0  0.08889044445876436  0.6817486544607427  0.9012122855959579  1.0000
  Cl  Cl9       1.0  0.16160088237366382  0.02727802554777813  0.38249857041722046  1.0000
  Cl  Cl10      1.0  0.338132187310345  0.9723074613147793  0.881871514243694  1.0000
  Cl  Cl11      1.0  0.8440523398675269  0.527517188334148  0.11771023836848322  1.0000
  Cl  Cl12      1.0  0.6543359781767892  0.472491777985788  0.6176930004739847  1.0000
  C   C1        1.0  0.24866844909283428  0.7362107245704989  0.336509136001298  1.0000
  C   C2        1.0  0.2509303334911051  0.263685835987165  0.8368538815420178  1.0000
  C   C3        1.0  0.752516335346247  0.2364143418837524  0.16333108948289404  1.0000
  C   C4        1.0  0.7483375402817257  0.7635223685733626  0.6631294170803125  1.0000
  C   C5        1.0  0.37662407271088993  0.7314871673231973  0.2503600545607425  1.0000
  C   C6        1.0  0.12370291449516804  0.26882243374824755  0.7505925536947685  1.0000
  C   C7        1.0  0.6256840123362495  0.23167442521098322  0.24959324258907536  1.0000
  C   C8        1.0  0.874577028003461  0.7681894937436181  0.7494924496926911  1.0000
  H   H1        1.0  0.4289838007822183  0.6600217918030102  0.21808133850360387  1.0000
  H   H2        1.0  0.07205463631543702  0.34048372139753746  0.718465139944089  1.0000
  H   H3        1.0  0.5728679495832282  0.16021309368745812  0.2818974626932359  1.0000
  H   H4        1.0  0.9283809669856672  0.8396317255648295  0.7816798716555305  1.0000
  C   C9        1.0  0.43720785279366625  0.8211402834986752  0.20612998697250307  1.0000
  C   C10       1.0  0.06380560973700218  0.1794169390791631  0.705969383493918  1.0000
  C   C11       1.0  0.5670711430093507  0.32129708582664623  0.29398716234785555  1.0000
  C   C12       1.0  0.9316575776179802  0.6785385390138532  0.7941075814369642  1.0000
  C   C13       1.0  0.3725088899278599  0.9132997409831454  0.24547560860544737  1.0000
  C   C14       1.0  0.12788287097489273  0.08705398967913683  0.7451144561130368  1.0000
  C   C15       1.0  0.6323583037928092  0.41344056967758913  0.2546039002012123  1.0000
  C   C16       1.0  0.8652091775374083  0.586408918900006  0.7548603424730118  1.0000
  H   H5        1.0  0.42188555813403544  0.9827322747842082  0.20948726476933147  1.0000
  H   H6        1.0  0.07942153976293552  0.017805702092443015  0.7087979443533651  1.0000
  H   H7        1.0  0.5851788437151586  0.48284631123636235  0.29078707458421804  1.0000
  H   H8        1.0  0.9115112044623062  0.5170035841716616  0.7912069214217872  1.0000
  C   C17       1.0  0.2444634856870179  0.9140492325951195  0.3317494694350847  1.0000
  C   C18       1.0  0.25523121595077763  0.08586653011840031  0.831521469939035  1.0000
  C   C19       1.0  0.7597727329099004  0.4142198626059108  0.16827495768950054  1.0000
  C   C20       1.0  0.7386349285050394  0.5857205822544447  0.6683690898092974  1.0000
  C   C21       1.0  0.18085066046819728  0.8264400355623142  0.3788207661762892  1.0000
  C   C22       1.0  0.3185014900179741  0.17322856936971365  0.8789509743075138  1.0000
  C   C23       1.0  0.8214061944710017  0.3266311103801098  0.1210539240039998  1.0000
  C   C24       1.0  0.6785689679058365  0.6733401551284867  0.6209386959004913  1.0000
  H   H9        1.0  0.08005847352993721  0.8288524930512722  0.4465080538940252  1.0000
  H   H10       1.0  0.4189240514683691  0.17044670381876875  0.9467159725087552  1.0000
  H   H11       1.0  0.9225190807231062  0.32901137092477734  0.05338197732824986  1.0000
  H   H12       1.0  0.5789795972005927  0.6709676017080621  0.5530715315586712  1.0000
