data_cif

_audit_creation_method             'generated by GULP'

_symmetry_space_group_name_H-M     'P 21 21 21      '
_symmetry_Int_Tables_number        19
_symmetry_cell_setting             Orthorhombic

_cell_length_a                       3.780883
_cell_length_b                      13.082122
_cell_length_c                      13.815998
_cell_angle_alpha                   90.000000
_cell_angle_beta                    90.000000
_cell_angle_gamma                   90.000000

loop_
_atom_site_label
_atom_site_fract_x
_atom_site_fract_y
_atom_site_fract_z
_atom_site_occupancy
  Cl2         0.04020      0.60353      0.38864  1.0000
  Cl2         0.65552      0.81493      0.09281  1.0000
  Cl2         0.13009      0.01943      0.40471  1.0000
  C1          0.17401      0.71938      0.33739  1.0000
  C1          0.34192      0.72027      0.24680  1.0000
  H3          0.38832      0.64944      0.20805  1.0000
  C1          0.44844      0.81335      0.20577  1.0000
  C1          0.38507      0.90542      0.25461  1.0000
  H3          0.46643      0.97713      0.22224  1.0000
  C1          0.21536      0.90445      0.34484  1.0000
  C1          0.11037      0.81148      0.38649  1.0000
  H3          0.97712      0.81109      0.45601  1.0000
