data_TCHLBZ03.b3lyp.6-311G**.dma4.-78.7228.1.7128
_audit_creation_method 'generated by cspy2.0'
_cell_length_a 4.5019
_cell_length_b 13.1216
_cell_length_c 11.9116
_cell_angle_alpha 90.0
_cell_angle_beta 90.0
_cell_angle_gamma 90.0
loop_
_symmetry_equiv_pos_site_id
_symmetry_equiv_pos_as_xyz
1 +x,+y,+z
loop_
_atom_site_label
_atom_site_type_symbol
_atom_site_fract_x
_atom_site_fract_y
_atom_site_fract_z
_atom_site_occupancy
Cl1 Cl       0.050986270000       0.609332000000       0.391161790000       1.000000000000
Cl2 Cl       0.737208520000       0.812670450000       0.096591430000       1.000000000000
Cl3 Cl       0.067648800000       1.019385760000       0.394585790000       1.000000000000
Cl4 Cl       0.974903810000       0.109331990000       0.114181780000       1.000000000000
Cl5 Cl       0.288681540000       0.312670450000       0.408752150000       1.000000000000
Cl6 Cl       0.958241290000       0.519385750000       0.110757780000       1.000000000000
Cl7 Cl       0.474903820000       0.388208570000       0.891161800000       1.000000000000
Cl8 Cl      -0.211318450000       0.184870130000       0.596591420000       1.000000000000
Cl9 Cl       0.458241260000      -0.021845180000       0.894585780000       1.000000000000
Cl10 Cl       0.550986260000       0.888208570000       0.614181770000       1.000000000000
Cl11 Cl       1.237208530000       0.684870120000       0.908752150000       1.000000000000
Cl12 Cl       0.567648800000       0.478154820000       0.610757780000       1.000000000000
C1 C       0.185543040000       0.723486860000       0.336687880000       1.000000000000
C2 C       0.384459850000       0.721747030000       0.248525490000       1.000000000000
C3 C       0.486556840000       0.813831170000       0.207396600000       1.000000000000
C4 C       0.393771960000       0.906463310000       0.250734970000       1.000000000000
C5 C       0.193067520000       0.904570870000       0.338721390000       1.000000000000
C6 C       0.086318940000       0.814576550000       0.383712720000       1.000000000000
C7 C       0.840347030000       0.223486860000       0.168655690000       1.000000000000
C8 C       0.641430240000       0.221747020000       0.256818060000       1.000000000000
C9 C       0.539333240000       0.313831180000       0.297946960000       1.000000000000
C10 C       0.632118110000       0.406463320000       0.254608600000       1.000000000000
C11 C       0.832822560000       0.404570860000       0.166622180000       1.000000000000
C12 C       0.939571150000       0.314576550000       0.121630840000       1.000000000000
C13 C       0.340347030000       0.274053710000       0.836687880000       1.000000000000
C14 C       0.141430240000       0.275793550000       0.748525490000       1.000000000000
C15 C       0.039333230000       0.183709400000       0.707396600000       1.000000000000
C16 C       0.132118100000       0.091077250000       0.750734970000       1.000000000000
C17 C       0.332822540000       0.092969710000       0.838721390000       1.000000000000
C18 C       0.439571140000       0.182964010000       0.883712720000       1.000000000000
C19 C       0.685543040000       0.774053710000       0.668655680000       1.000000000000
C20 C       0.884459840000       0.775793550000       0.756818060000       1.000000000000
C21 C       0.986556840000       0.683709400000       0.797946960000       1.000000000000
C22 C       0.893771970000       0.591077260000       0.754608600000       1.000000000000
C23 C       0.693067530000       0.592969710000       0.666622190000       1.000000000000
C24 C       0.586318940000       0.682964020000       0.621630840000       1.000000000000
H1 H       0.449369690000       0.658999180000       0.217078850000       1.000000000000
H2 H       0.465323840000       0.968979030000       0.221090720000       1.000000000000
H3 H      -0.050073030000       0.814900130000       0.444567060000       1.000000000000
H4 H       0.576520390000       0.158999180000       0.288264720000       1.000000000000
H5 H       0.560566230000       0.468979030000       0.284252850000       1.000000000000
H6 H       1.075963120000       0.314900130000       0.060776520000       1.000000000000
H7 H       0.076520390000       0.338541400000       0.717078840000       1.000000000000
H8 H       0.060566230000       0.028561540000       0.721090720000       1.000000000000
H9 H       0.575963110000       0.182640430000       0.944567060000       1.000000000000
H10 H       0.949369680000       0.838541400000       0.788264720000       1.000000000000
H11 H       0.965323850000       0.528561550000       0.784252860000       1.000000000000
H12 H       0.449926970000       0.682640440000       0.560776510000       1.000000000000
#END