data_THIOUR01.b3lyp.6-311G**.dma4.-105.6448.1.5063
_audit_creation_method 'generated by cspy2.0'
_cell_length_a 7.7672
_cell_length_b 8.3467
_cell_length_c 5.1782
_cell_angle_alpha 90.0
_cell_angle_beta 90.0
_cell_angle_gamma 90.86210000000001
loop_
_symmetry_equiv_pos_site_id
_symmetry_equiv_pos_as_xyz
1 +x,+y,+z
loop_
_atom_site_label
_atom_site_type_symbol
_atom_site_fract_x
_atom_site_fract_y
_atom_site_fract_z
_atom_site_occupancy
C1 C       0.094093620000       0.249509770000       0.835226240000       1.000000000000
C2 C       0.942345290000       0.748381310000       0.170568470000       1.000000000000
C3 C       0.442198200000       0.748635260000       0.335226220000       1.000000000000
C4 C       0.593946520000       0.249763700000       0.670568470000       1.000000000000
H1 H       0.203079640000       0.376407590000       0.548873350000       1.000000000000
H2 H       0.201308110000       0.118474370000       0.555836300000       1.000000000000
H3 H       0.103015420000       0.491499580000       0.784770470000       1.000000000000
H4 H       0.099685880000       0.006724210000       0.797857060000       1.000000000000
H5 H       0.833638240000       0.621485150000       0.457157240000       1.000000000000
H6 H       0.835420180000       0.879418640000       0.450210360000       1.000000000000
H7 H       0.933457810000       0.506390970000       0.221025510000       1.000000000000
H8 H       0.936806930000       0.991166830000       0.207969130000       1.000000000000
H9 H       0.333212190000       0.621737410000       0.048873340000       1.000000000000
H10 H       0.334983730000       0.879670650000       0.055836290000       1.000000000000
H11 H       0.433276410000       0.506645420000       0.284770460000       1.000000000000
H12 H       0.436605950000       0.991420800000       0.297857050000       1.000000000000
H13 H       0.702653600000       0.376659860000       0.957157230000       1.000000000000
H14 H       0.700871640000       0.118726380000       0.950210340000       1.000000000000
H15 H       0.602834020000       0.491754040000       0.721025510000       1.000000000000
H16 H       0.599484900000       0.006978190000       0.707969100000       1.000000000000
N1 N       0.141055210000       0.384596140000       0.715544810000       1.000000000000
N2 N       0.139188130000       0.112753750000       0.722883220000       1.000000000000
N3 N       0.895494780000       0.613295640000       0.290345300000       1.000000000000
N4 N       0.897372820000       0.885138300000       0.283023800000       1.000000000000
N5 N       0.395236620000       0.613548860000       0.215544790000       1.000000000000
N6 N       0.397103700000       0.885391270000       0.222883220000       1.000000000000
N7 N       0.640797050000       0.384849380000       0.790345310000       1.000000000000
N8 N       0.638919000000       0.113006720000       0.783023790000       1.000000000000
S1 S      -0.018306420000       0.251552820000       1.118956360000       1.000000000000
S2 S       1.054460310000       0.746336210000      -0.113415260000       1.000000000000
S3 S       0.554598240000       0.746592190000       0.618956360000       1.000000000000
S4 S       0.481831520000       0.251808800000       0.386584730000       1.000000000000
#END