data_image0
_chemical_formula_structural       C4H16N8S4
_chemical_formula_sum              "C4 H16 N8 S4"
_cell_length_a       7.857714305876705
_cell_length_b       8.591082108660588
_cell_length_c       5.9175351387365405
_cell_angle_alpha    90.02277738452082
_cell_angle_beta     89.98469661702109
_cell_angle_gamma    90.07594483489581

_space_group_name_H-M_alt    "P 1"
_space_group_IT_number       1

loop_
  _space_group_symop_operation_xyz
  'x, y, z'

loop_
  _atom_site_type_symbol
  _atom_site_label
  _atom_site_symmetry_multiplicity
  _atom_site_fract_x
  _atom_site_fract_y
  _atom_site_fract_z
  _atom_site_occupancy
  C   C1        1.0  0.08382602122435552  0.25006245709377706  0.8552982259347458  1.0000
  C   C2        1.0  0.4160644607931543  0.7498992700386224  0.3548632339609273  1.0000
  C   C3        1.0  0.9161144995852635  0.7497397411237781  0.14488159207062187  1.0000
  C   C4        1.0  0.5838526703043199  0.25015811763092466  0.6448141254492776  1.0000
  H   H1        1.0  0.22831088811873412  0.3784541657562319  0.6380599671519169  1.0000
  H   H2        1.0  0.27176701508455947  0.8779287541120471  0.13749103983065966  1.0000
  H   H3        1.0  0.22884277122315025  0.12193277693349751  0.6386431976484102  1.0000
  H   H4        1.0  0.27154031922927435  0.6216041954957326  0.1375255717050847  1.0000
  H   H5        1.0  0.7715939712441159  0.6218081598698959  0.3625400639524717  1.0000
  H   H6        1.0  0.7281602940538942  0.12209021531807925  0.8621728711080194  1.0000
  H   H7        1.0  0.7725111663930491  0.8780653319470918  0.36275654954604314  1.0000
  H   H8        1.0  0.7281780573822968  0.37856427081857935  0.8622341612983462  1.0000
  H   H9        1.0  0.09806317474644546  0.48942925725109127  0.8253420078235714  1.0000
  H   H10       1.0  0.40164835637727475  0.9893004100177056  0.32505855916122556  1.0000
  H   H11       1.0  0.09887504651416032  0.010667123614522022  0.8261898431222439  1.0000
  H   H12       1.0  0.4012409436715183  0.5104882970511315  0.3251392525690294  1.0000
  H   H13       1.0  0.900978335803622  0.5103997986403211  0.174455134382657  1.0000
  H   H14       1.0  0.5986299990230335  0.010835144842681567  0.6738356931394206  1.0000
  H   H15       1.0  0.9019959023847157  0.9892126167447373  0.174459677340142  1.0000
  H   H16       1.0  0.5985317989821854  0.489521370960746  0.6743022342609465  1.0000
  N   N1        1.0  0.13970207014748198  0.3830387824656066  0.7664650945469796  1.0000
  N   N2        1.0  0.3600571338393026  0.8827884540913917  0.2662311480148144  1.0000
  N   N3        1.0  0.14047947970947602  0.11713913308350829  0.7673955949267957  1.0000
  N   N4        1.0  0.3596748865490939  0.6169064115903761  0.26644365750247445  1.0000
  N   N5        1.0  0.8595780736813562  0.6168758990967528  0.233372662694957  1.0000
  N   N6        1.0  0.6400427123972628  0.11728297719091467  0.7331301358020689  1.0000
  N   N7        1.0  0.8606532842723574  0.882771038961924  0.2337895218305274  1.0000
  N   N8        1.0  0.6397922517565389  0.3831679220058308  0.7336081580175299  1.0000
  S   S1        1.0  0.9433402901042195  0.25010831063095396  0.07903012547338384  1.0000
  S   S2        1.0  0.5561789564792042  0.750053475226462  0.5789021591859286  1.0000
  S   S3        1.0  0.05623037551792228  0.7495865587137274  0.9207146251950209  1.0000
  S   S4        1.0  0.44353280138012946  0.2501220527347571  0.42085793646674824  1.0000
