# CIF file generated from CASTEP cell file
# https://gist.github.com/blake-armstrong/93facdde07a6e0a1ddb51857dd48e3f1
# Structure converted from CASTEP

data_structure

_cell_length_a    7.525514176262767
_cell_length_b    8.571935215115955
_cell_length_c    5.401017565410890
_cell_angle_alpha 89.974457968390340
_cell_angle_beta  89.990720191505829
_cell_angle_gamma 90.012501481343705

_symmetry_space_group_name_H-M 'P 1'
_symmetry_Int_Tables_number 1

loop_
_atom_site_label
_atom_site_type_symbol
_atom_site_fract_x
_atom_site_fract_y
_atom_site_fract_z
H1       H     0.204685585642366    0.338521659429092    0.568796186481795
H2       H     0.094124484672218    0.445158589071128    0.802489968829636
H3       H     0.294753547224508    0.656434781929340    0.068629000707150
H4       H     0.405129471250009    0.549661390497698    0.302423703841722
H5       H     0.704848728142499    0.156265381034492    0.925816429030376
H6       H     0.594322252601371    0.049574903872399    0.692148233289286
H7       H     0.794786354378223    0.838220390213497    0.426085623132522
H8       H     0.905358682793112    0.944994154052839    0.192382708103770
H9       H     0.838124362726327    0.575229500560227    0.458711713947628
H10      H     0.921207262651801    0.466200095027413    0.210962943216606
H11      H     0.661022557945880    0.419220857597794    0.958704166668442
H12      H     0.577914959760962    0.528328348358824    0.710936477877291
H13      H     0.338430405792472    0.919421147275052    0.035901040180878
H14      H     0.421445957321784    0.028442699678385    0.283694893232989
H15      H     0.161357743891411    0.075562370704232    0.536186922814125
H16      H     0.078192163961647    0.966357087024067    0.783862250472367
C1       C     0.082083745787943    0.205646228396197    0.834575878259546
C2       C     0.417350926721196    0.789136652443178    0.334415807246623
C3       C     0.917331978291426    0.705511020515654    0.160277338945340
C4       C     0.582068119534022    0.289064905675561    0.660193335115986
N1       N     0.125734506843214    0.339841100177570    0.723760127517957
N2       N     0.373626482949811    0.655017341845031    0.223633577798283
N3       N     0.625895984680559    0.154899802819811    0.770888209895517
N4       N     0.873720467196982    0.839629917514548    0.271108100245196
N5       N     0.878483688702898    0.571643536940936    0.278766915296260
N6       N     0.620738878438651    0.422881002070924    0.778738016415210
N7       N     0.378689604531913    0.923001951770898    0.215872380083075
N8       N     0.120972460069401    0.071854157632338    0.716120469263687
S1       S     0.981526849644953    0.204567258199713    0.120475034339151
S2       S     0.517751990251163    0.790023356402065    0.620378043954788
S3       S     0.017809979638478    0.704630584518292    0.874323622445575
S4       S     0.481523605960742    0.290070906750746    0.374330961351253
