data_image0
_chemical_formula_structural       C4H16N8S4
_chemical_formula_sum              "C4 H16 N8 S4"
_cell_length_a       7.655
_cell_length_b       8.537
_cell_length_c       5.52
_cell_angle_alpha    90.0
_cell_angle_beta     90.0
_cell_angle_gamma    90.0

_space_group_name_H-M_alt    "P 1"
_space_group_IT_number       1

loop_
  _space_group_symop_operation_xyz
  'x, y, z'

loop_
  _atom_site_type_symbol
  _atom_site_label
  _atom_site_symmetry_multiplicity
  _atom_site_fract_x
  _atom_site_fract_y
  _atom_site_fract_z
  _atom_site_occupancy
  C   C1        1.0  0.08503181854032144  0.24975138986418405  0.839419981667572  1.0000
  C   C2        1.0  0.41496825245212615  0.7502482869372569  0.3394200453228404  1.0000
  C   C3        1.0  0.9149682777606133  0.7497517927860343  0.16057987760267364  1.0000
  C   C4        1.0  0.5850315415907493  0.2502483773566456  0.6605792357758257  1.0000
  H   H1        1.0  0.1926271266738947  0.38113328102011246  0.5675942454540828  1.0000
  H   H2        1.0  0.3094469756135127  0.8816496076674517  0.06602667133907847  1.0000
  H   H3        1.0  0.19055199868898612  0.11834980090319082  0.5660270991855698  1.0000
  H   H4        1.0  0.30737274689754984  0.6188671749885366  0.06759349354037716  1.0000
  H   H5        1.0  0.8094461729283302  0.6183490771401321  0.4339730544097143  1.0000
  H   H6        1.0  0.6926265594762863  0.1188672667260309  0.9324055098347109  1.0000
  H   H7        1.0  0.8073730320921579  0.8811335753972741  0.4324072000294904  1.0000
  H   H8        1.0  0.690551816381189  0.38164983689773113  0.9339711900586859  1.0000
  H   H9        1.0  0.08943262536045991  0.4904042666506265  0.7973713177070896  1.0000
  H   H10       1.0  0.41178903671632516  0.9908697317355196  0.2964730226885792  1.0000
  H   H11       1.0  0.08820937190045898  0.009130625658490776  0.7964711456089912  1.0000
  H   H12       1.0  0.4105700371053646  0.5095954180183677  0.29737027432059804  1.0000
  H   H13       1.0  0.911787464646951  0.509128108499593  0.20352862786808992  1.0000
  H   H14       1.0  0.5894305234989717  0.00959567437544428  0.7026314710859061  1.0000
  H   H15       1.0  0.9105729663802815  0.9904046971355788  0.2026308719075836  1.0000
  H   H16       1.0  0.5882127618619323  0.4908709158848771  0.7035294107258698  1.0000
  N   N1        1.0  0.12845339639716188  0.3840506895310566  0.7294919629233501  1.0000
  N   N2        1.0  0.37294916658093213  0.8845244558598482  0.2283885357775835  1.0000
  N   N3        1.0  0.1270529700913767  0.11547583554823158  0.7283907408277576  1.0000
  N   N4        1.0  0.3715450070926503  0.6159492738005635  0.22949273180926466  1.0000
  N   N5        1.0  0.8729503744392081  0.6154749730624679  0.27161201708069743  1.0000
  N   N6        1.0  0.6284546663860391  0.11594935946027987  0.7705066433689463  1.0000
  N   N7        1.0  0.8715431784188212  0.8840511736349138  0.2705058223787062  1.0000
  N   N8        1.0  0.6270510239802918  0.3845241890507296  0.7716097124438477  1.0000
  S   S1        1.0  0.9813779362738924  0.24957639137057264  0.11561157878634566  1.0000
  S   S2        1.0  0.5186216527858671  0.7504233536504117  0.6156132640123618  1.0000
  S   S3        1.0  0.018621281056699565  0.7495803795467484  0.884384811995424  1.0000
  S   S4        1.0  0.4813783119342037  0.2504209446477873  0.3843883338624035  1.0000
