data_cif

_audit_creation_method             'generated by GULP'

_symmetry_space_group_name_H-M     'P N M A         '
_symmetry_Int_Tables_number        62
_symmetry_cell_setting             Orthorhombic

_cell_length_a                       6.833773
_cell_length_b                       7.660203
_cell_length_c                       5.385946
_cell_angle_alpha                   90.000000
_cell_angle_beta                    90.000000
_cell_angle_gamma                   90.000000

loop_
_atom_site_label
_atom_site_fract_x
_atom_site_fract_y
_atom_site_fract_z
_atom_site_occupancy
  C3          0.11268      0.25000      0.82704  1.0000
  H1          0.13987      0.38417      0.50271  1.0000
  H1          0.10555      0.51342      0.77113  1.0000
  N2          0.12383      0.39553      0.68886  1.0000
  S4          0.07340      0.25000      0.12952  1.0000
