data_cif

_audit_creation_method             'generated by GULP'

_symmetry_space_group_name_H-M     'C M C A         '
_symmetry_Int_Tables_number        64
_symmetry_cell_setting             Orthorhombic

_cell_length_a                      27.114139
_cell_length_b                       7.335563
_cell_length_c                      13.515513
_cell_angle_alpha                   90.000000
_cell_angle_beta                    90.000000
_cell_angle_gamma                   90.000000

loop_
_atom_site_label
_atom_site_fract_x
_atom_site_fract_y
_atom_site_fract_z
_atom_site_occupancy
  C1          0.02643      0.00000      0.00000  1.0000
  C2          0.05265      0.85363      0.04777  1.0000
  C1          0.02596      0.70347      0.08722  1.0000
  C1          0.05110      0.55580      0.13241  1.0000
  C1          0.02560      0.41013      0.17490  1.0000
  C2          0.10681      0.86218      0.07117  1.0000
  C1          0.14151      0.74854      0.02323  1.0000
  C1          0.19102      0.74542      0.05340  1.0000
  C1          0.20711      0.85844      0.13078  1.0000
  C1          0.17338      0.97358      0.17862  1.0000
  C1          0.12370      0.97398      0.14933  1.0000
  H3          0.09091      0.55156      0.13635  1.0000
  H3          0.04547      0.29832      0.20899  1.0000
  H3          0.12929      0.66111      0.96335  1.0000
  H3          0.21681      0.65476      0.01688  1.0000
  H3          0.24554      0.85638      0.15362  1.0000
  H3          0.18541      0.06157      0.23861  1.0000
  H3          0.09757      0.06171      0.18686  1.0000
