data_QQQCIG11.b3lyp.6-311G**.dma4.-213.9788.1.3357
_audit_creation_method 'generated by cspy2.0'
_cell_length_a 26.6609
_cell_length_b 6.988
_cell_length_c 14.2219
_cell_angle_alpha 89.8091
_cell_angle_beta 89.7366
_cell_angle_gamma 91.3406
loop_
_symmetry_equiv_pos_site_id
_symmetry_equiv_pos_as_xyz
1 +x,+y,+z
loop_
_atom_site_label
_atom_site_type_symbol
_atom_site_fract_x
_atom_site_fract_y
_atom_site_fract_z
_atom_site_occupancy
C1 C       0.027258150000       0.001515080000       0.000067310000       1.000000000000
C2 C      -0.027258150000      -0.001515080000      -0.000067310000       1.000000000000
C3 C      -0.052848070000       0.144456440000      -0.049861630000       1.000000000000
C4 C       0.053846690000       0.150386830000      -0.049598190000       1.000000000000
C5 C      -0.053846690000      -0.150386830000       0.049598190000       1.000000000000
C6 C       0.052848070000      -0.144456440000       0.049861630000       1.000000000000
C7 C       0.027766160000       0.303474040000      -0.088861060000       1.000000000000
C8 C      -0.025802900000       0.300496530000      -0.088993320000       1.000000000000
C9 C      -0.027766160000      -0.303474040000       0.088861060000       1.000000000000
C10 C       0.025802900000      -0.300496530000       0.088993320000       1.000000000000
C11 C      -0.053355180000      -0.460095040000       0.135425300000       1.000000000000
C12 C      -0.050376940000       0.454329320000      -0.135681410000       1.000000000000
C13 C       0.053355180000       0.460095040000      -0.135425300000       1.000000000000
C14 C       0.050376940000      -0.454329320000       0.135681410000       1.000000000000
C15 C      -0.028044550000      -0.602843110000       0.177170330000       1.000000000000
C16 C      -0.024133900000       0.599942890000      -0.177299160000       1.000000000000
C17 C       0.028044550000       0.602843110000      -0.177170330000       1.000000000000
C18 C       0.024133900000      -0.599942890000       0.177299160000       1.000000000000
C19 C      -0.108414520000      -0.142856380000       0.073330650000       1.000000000000
C20 C      -0.107312840000       0.130865660000      -0.073863310000       1.000000000000
C21 C       0.107312840000      -0.130865660000       0.073863310000       1.000000000000
C22 C       0.108414520000       0.142856380000      -0.073330650000       1.000000000000
C23 C       0.144296390000       0.259371820000      -0.030481280000       1.000000000000
C24 C      -0.142936980000       0.243406610000      -0.031190490000       1.000000000000
C25 C      -0.144296390000      -0.259371820000       0.030481280000       1.000000000000
C26 C       0.142936980000      -0.243406610000       0.031190490000       1.000000000000
C27 C       0.193201650000       0.263818510000      -0.061334550000       1.000000000000
C28 C      -0.191637060000       0.242428120000      -0.062284750000       1.000000000000
C29 C      -0.193201650000      -0.263818510000       0.061334550000       1.000000000000
C30 C       0.191637060000      -0.242428120000       0.062284750000       1.000000000000
C31 C      -0.206165000000       0.128416280000      -0.136065470000       1.000000000000
C32 C       0.206165000000      -0.128416280000       0.136065470000       1.000000000000
C33 C       0.207675180000       0.151418650000      -0.135043650000       1.000000000000
C34 C      -0.207675180000      -0.151418650000       0.135043650000       1.000000000000
C35 C      -0.172793960000      -0.035476960000       0.178469140000       1.000000000000
C36 C       0.172793960000       0.035476960000      -0.178469140000       1.000000000000
C37 C       0.171535420000      -0.016338190000       0.179319320000       1.000000000000
C38 C      -0.171535420000       0.016338190000      -0.179319320000       1.000000000000
C39 C       0.122541060000      -0.017336830000       0.148863690000       1.000000000000
C40 C      -0.122541060000       0.017336830000      -0.148863690000       1.000000000000
C41 C      -0.123598510000      -0.031017940000       0.148255950000       1.000000000000
C42 C       0.123598510000       0.031017940000      -0.148255950000       1.000000000000
C43 C       0.972251690000       0.497400620000       0.500106370000       1.000000000000
C44 C       1.026769930000       0.501039280000       0.499346820000       1.000000000000
C45 C       1.053162020000       0.649977110000       0.548378620000       1.000000000000
C46 C       0.945859590000       0.348462790000       0.451074580000       1.000000000000
C47 C       1.052558130000       0.355584080000       0.449588070000       1.000000000000
C48 C       0.946463490000       0.642855830000       0.549865150000       1.000000000000
C49 C       1.025696850000       0.199426530000       0.411111420000       1.000000000000
C50 C       0.972125880000       0.195851100000       0.411857770000       1.000000000000
C51 C       1.026895730000       0.802588800000       0.587595430000       1.000000000000
C52 C       0.973324760000       0.799013360000       0.588341770000       1.000000000000
C53 C       1.050469790000       0.046085480000       0.364488030000       1.000000000000
C54 C       0.946733980000       0.039161940000       0.365933270000       1.000000000000
C55 C       0.948551810000       0.952354410000       0.634965170000       1.000000000000
C56 C       1.052287620000       0.959277960000       0.633519940000       1.000000000000
C57 C       0.972226680000      -0.103108890000       0.324219860000       1.000000000000
C58 C       1.024406980000      -0.099626270000       0.323492890000       1.000000000000
C59 C       0.974614620000       1.098066160000       0.675960300000       1.000000000000
C60 C       1.026794930000       1.101548790000       0.675233330000       1.000000000000
C61 C       1.107057560000       0.369888000000       0.424938060000       1.000000000000
C62 C       1.107699060000       0.642950500000       0.571509530000       1.000000000000
C63 C       0.891322550000       0.355489390000       0.427943670000       1.000000000000
C64 C       0.891964050000       0.628551900000       0.574515140000       1.000000000000
C65 C       1.143567940000       0.760048510000       0.527992100000       1.000000000000
C66 C       0.855453670000       0.238391380000       0.471461100000       1.000000000000
C67 C       0.856324350000       0.740877270000       0.531993960000       1.000000000000
C68 C       1.142697260000       0.257562630000       0.467459240000       1.000000000000
C69 C       1.192420690000       0.764903460000       0.558281340000       1.000000000000
C70 C       0.806600920000       0.233536420000       0.441171850000       1.000000000000
C71 C       1.191453320000       0.259222280000       0.435810130000       1.000000000000
C72 C       0.807568300000       0.739217610000       0.563643070000       1.000000000000
C73 C       0.792166540000       0.346094400000       0.367374420000       1.000000000000
C74 C       1.206021430000       0.373715930000       0.361608630000       1.000000000000
C75 C       1.206855070000       0.652345500000       0.632078780000       1.000000000000
C76 C       0.793000180000       0.624723950000       0.637844570000       1.000000000000
C77 C       1.171377730000       0.485592160000       0.318496160000       1.000000000000
C78 C       1.171985500000       0.535829810000       0.676159700000       1.000000000000
C79 C       0.827036100000       0.462610080000       0.323293500000       1.000000000000
C80 C       0.827643890000       0.512847730000       0.680957050000       1.000000000000
C81 C       0.876180150000       0.467483440000       0.352939330000       1.000000000000
C82 C       1.122841450000       0.530956460000       0.646513880000       1.000000000000
C83 C       1.122328480000       0.483911890000       0.349510010000       1.000000000000
C84 C       0.876693140000       0.514528010000       0.649943200000       1.000000000000
C85 C       0.471983650000       0.006023380000       0.498620870000       1.000000000000
C86 C       0.526500690000       0.009172070000       0.498587170000       1.000000000000
C87 C       0.552792790000       0.157247160000       0.548410410000       1.000000000000
C88 C       0.445691550000      -0.142051710000       0.448797620000       1.000000000000
C89 C       0.552387720000      -0.135889360000       0.448731660000       1.000000000000
C90 C       0.446096620000       0.151084820000       0.548476380000       1.000000000000
C91 C       0.525581870000      -0.291314000000       0.409435950000       1.000000000000
C92 C       0.472012090000      -0.294407970000       0.409469070000       1.000000000000
C93 C       0.526472250000       0.309603420000       0.587738970000       1.000000000000
C94 C       0.472902470000       0.306509450000       0.587772080000       1.000000000000
C95 C       0.550437050000      -0.444291890000       0.362678980000       1.000000000000
C96 C       0.446703540000      -0.450283110000       0.362743110000       1.000000000000
C97 C       0.448047290000       0.459487340000       0.634529070000       1.000000000000
C98 C       0.551780810000       0.465478570000       0.634464920000       1.000000000000
C99 C       0.472266350000      -0.592259590000       0.320938680000       1.000000000000
C100 C       0.524445500000      -0.589245940000       0.320906420000       1.000000000000
C101 C       0.474038840000       0.604441390000       0.676301630000       1.000000000000
C102 C       0.526217990000       0.607455050000       0.676269360000       1.000000000000
C103 C       0.606983500000      -0.121771700000       0.424838880000       1.000000000000
C104 C       0.607231070000       0.149426850000       0.572235790000       1.000000000000
C105 C       0.391253280000      -0.134231400000       0.424972260000       1.000000000000
C106 C       0.391500850000       0.136967160000       0.572369170000       1.000000000000
C107 C       0.643332520000       0.266750250000       0.529538100000       1.000000000000
C108 C       0.355151820000      -0.251554810000       0.467669950000       1.000000000000
C109 C       0.356095310000       0.250160600000       0.529715670000       1.000000000000
C110 C       0.642389030000      -0.234965150000       0.467492360000       1.000000000000
C111 C       0.692067060000       0.270772840000       0.560482810000       1.000000000000
C112 C       0.306417290000      -0.255577380000       0.436725240000       1.000000000000
C113 C       0.691261140000      -0.233350380000       0.436487310000       1.000000000000
C114 C       0.307223210000       0.248545830000       0.560720730000       1.000000000000
C115 C       0.292334010000      -0.141948470000       0.363073980000       1.000000000000
C116 C       0.706179720000      -0.118046440000       0.362818120000       1.000000000000
C117 C       0.706150330000       0.157143920000       0.634134050000       1.000000000000
C118 C       0.292304640000       0.133241900000       0.634389920000       1.000000000000
C119 C       0.671772030000      -0.005303750000       0.319585060000       1.000000000000
C120 C       0.671046280000       0.040386520000       0.677410090000       1.000000000000
C121 C       0.327438070000      -0.025191060000       0.319797940000       1.000000000000
C122 C       0.326712310000       0.020499210000       0.677622980000       1.000000000000
C123 C       0.376466330000      -0.021144580000       0.350103110000       1.000000000000
C124 C       0.622018020000       0.036340040000       0.647104920000       1.000000000000
C125 C       0.622609190000      -0.006928380000       0.349950940000       1.000000000000
C126 C       0.375875160000       0.022123830000       0.647257110000       1.000000000000
C127 C       0.472307320000       0.504860480000       0.998440380000       1.000000000000
C128 C       0.526820450000       0.509371120000       0.999502590000       1.000000000000
C129 C       0.553378610000       0.657822590000       0.949481930000       1.000000000000
C130 C       0.445749140000       0.356409000000       1.048461040000       1.000000000000
C131 C       0.552437690000       0.365236880000       1.050539920000       1.000000000000
C132 C       0.446690070000       0.648994720000       0.947403050000       1.000000000000
C133 C       0.525487050000       0.209370930000       1.090059420000       1.000000000000
C134 C       0.471921100000       0.204938660000       1.089015660000       1.000000000000
C135 C       0.527206670000       0.809292940000       0.908927310000       1.000000000000
C136 C       0.473640700000       0.804860660000       0.907883550000       1.000000000000
C137 C       0.550117810000       0.057280180000       1.138016570000       1.000000000000
C138 C       0.446391730000       0.048697430000       1.135995410000       1.000000000000
C139 C       0.449009950000       0.956951420000       0.859926400000       1.000000000000
C140 C       0.552736050000       0.965534160000       0.861947560000       1.000000000000
C141 C       0.471762780000      -0.092401430000       1.178961640000       1.000000000000
C142 C       0.523938200000      -0.088084210000       1.179978310000       1.000000000000
C143 C       0.475189560000       1.102315810000       0.817964680000       1.000000000000
C144 C       0.527364980000       1.106633020000       0.818981340000       1.000000000000
C145 C       0.606764290000       0.380837610000       1.075407750000       1.000000000000
C146 C       0.608078270000       0.651243170000       0.926738550000       1.000000000000
C147 C       0.391049480000       0.362988430000       1.071204440000       1.000000000000
C148 C       0.392363460000       0.633393990000       0.922535230000       1.000000000000
C149 C       0.643541200000       0.769663710000       0.969562950000       1.000000000000
C150 C       0.355586580000       0.244567880000       1.028380030000       1.000000000000
C151 C       0.356324510000       0.745898150000       0.963966380000       1.000000000000
C152 C       0.642803260000       0.268333430000       1.033976590000       1.000000000000
C153 C       0.692590540000       0.774746270000       0.939535350000       1.000000000000
C154 C       0.306537210000       0.239485320000       1.058407630000       1.000000000000
C155 C       0.691353570000       0.271326700000       1.065905980000       1.000000000000
C156 C       0.307774190000       0.742904900000       0.932037000000       1.000000000000
C157 C       0.291499900000       0.353115150000       1.131239160000       1.000000000000
C158 C       0.705316030000       0.387356090000       1.139302580000       1.000000000000
C159 C       0.707627870000       0.661116440000       0.866703820000       1.000000000000
C160 C       0.293811720000       0.626875490000       0.858640400000       1.000000000000
C161 C       0.670269730000       0.499437460000       1.181334520000       1.000000000000
C162 C       0.673167400000       0.543283780000       0.823317520000       1.000000000000
C163 C       0.325960350000       0.470947810000       1.174625460000       1.000000000000
C164 C       0.328858030000       0.514794130000       0.816608470000       1.000000000000
C165 C       0.375296800000       0.476064850000       1.145242830000       1.000000000000
C166 C       0.623830970000       0.538166730000       0.852700140000       1.000000000000
C167 C       0.621422080000       0.496430330000       1.150038720000       1.000000000000
C168 C       0.377705700000       0.517801270000       0.847904250000       1.000000000000
H1 H       0.086688270000      -0.449946060000       0.136206930000       1.000000000000
H2 H      -0.086688270000       0.449946060000      -0.136206930000       1.000000000000
H3 H      -0.089658350000      -0.459747880000       0.135771520000       1.000000000000
H4 H       0.089658350000       0.459747880000      -0.135771520000       1.000000000000
H5 H      -0.042456570000       0.698855350000      -0.208310150000       1.000000000000
H6 H       0.042456570000      -0.698855350000       0.208310150000       1.000000000000
H7 H      -0.047026750000      -0.703829070000       0.208089210000       1.000000000000
H8 H       0.047026750000       0.703829070000      -0.208089210000       1.000000000000
H9 H       0.132111400000      -0.326046750000      -0.021215100000       1.000000000000
H10 H       0.133517000000       0.340811090000       0.021870960000       1.000000000000
H11 H      -0.132111400000       0.326046750000       0.021215100000       1.000000000000
H12 H      -0.133517000000      -0.340811090000      -0.021870960000       1.000000000000
H13 H      -0.219023500000      -0.342777020000       0.028558960000       1.000000000000
H14 H       0.217308430000      -0.318524500000       0.029636300000       1.000000000000
H15 H       0.219023500000       0.342777020000      -0.028558960000       1.000000000000
H16 H      -0.217308430000       0.318524500000      -0.029636300000       1.000000000000
H17 H       0.241948940000      -0.124367450000       0.153263950000       1.000000000000
H18 H       0.243558510000       0.151353270000      -0.152065190000       1.000000000000
H19 H      -0.241948940000       0.124367450000      -0.153263950000       1.000000000000
H20 H      -0.243558510000      -0.151353270000       0.152065190000       1.000000000000
H21 H      -0.180187970000      -0.070408870000      -0.230500750000       1.000000000000
H22 H      -0.181372990000       0.050312320000       0.229608020000       1.000000000000
H23 H       0.181372990000      -0.050312320000      -0.229608020000       1.000000000000
H24 H       0.180187970000       0.070408870000       0.230500750000       1.000000000000
H25 H      -0.095793950000      -0.060875530000      -0.179144360000       1.000000000000
H26 H       0.095793950000       0.060875530000       0.179144360000       1.000000000000
H27 H      -0.096675790000       0.050177530000       0.178669140000       1.000000000000
H28 H       0.096675790000      -0.050177530000      -0.178669140000       1.000000000000
H29 H       1.088593140000       0.959334240000       0.633455290000       1.000000000000
H30 H       0.910428470000       0.039105650000       0.365997900000       1.000000000000
H31 H       1.086781360000       0.050875810000       0.363540970000       1.000000000000
H32 H       0.912240250000       0.947564090000       0.635912230000       1.000000000000
H33 H       1.042859430000      -0.198190020000       0.292494890000       1.000000000000
H34 H       0.953372930000      -0.204162530000       0.293741610000       1.000000000000
H35 H       1.045648680000       1.202602420000       0.705711590000       1.000000000000
H36 H       0.956162190000       1.196629910000       0.706958310000       1.000000000000
H37 H       1.131844370000       0.174574700000       0.520173160000       1.000000000000
H38 H       1.132815090000       0.841594410000       0.475579190000       1.000000000000
H39 H       0.866206520000       0.156845490000       0.523874010000       1.000000000000
H40 H       0.867177250000       0.823865180000       0.479280030000       1.000000000000
H41 H       1.217128810000       0.183272480000       0.468338150000       1.000000000000
H42 H       1.218240230000       0.844290150000       0.525035890000       1.000000000000
H43 H       0.780781390000       0.154149740000       0.474417310000       1.000000000000
H44 H       0.781892790000       0.815167410000       0.531115050000       1.000000000000
H45 H       1.241834300000       0.378239990000       0.343995090000       1.000000000000
H46 H       0.757187310000       0.620199910000       0.655458120000       1.000000000000
H47 H       1.242712010000       0.652604840000       0.648693820000       1.000000000000
H48 H       0.756309600000       0.345835050000       0.350759380000       1.000000000000
H49 H       1.180543220000       0.449915050000       0.727393920000       1.000000000000
H50 H       1.180052210000       0.572657040000       0.267021860000       1.000000000000
H51 H       0.818478380000       0.548524850000       0.272059280000       1.000000000000
H52 H       0.818969420000       0.425782850000       0.732431340000       1.000000000000
H53 H       0.903094910000       0.549108730000       0.322038830000       1.000000000000
H54 H       0.903450120000       0.436484880000       0.680095930000       1.000000000000
H55 H       1.095926720000       0.449331170000       0.677414360000       1.000000000000
H56 H       1.095571480000       0.561955020000       0.319357270000       1.000000000000
H57 H       0.588082400000       0.465202920000       0.634876580000       1.000000000000
H58 H       0.410401950000      -0.450007470000       0.362331450000       1.000000000000
H59 H       0.586750920000      -0.439822280000       0.362222420000       1.000000000000
H60 H       0.411733420000       0.455017730000       0.634985610000       1.000000000000
H61 H       0.542954420000      -0.687586360000       0.289855710000       1.000000000000
H62 H       0.453469910000      -0.692754620000       0.289911040000       1.000000000000
H63 H       0.545014420000       0.707950080000       0.707297000000       1.000000000000
H64 H       0.455529920000       0.702781810000       0.707352320000       1.000000000000
H65 H       0.631286210000      -0.318524120000       0.519816580000       1.000000000000
H66 H       0.632830070000       0.349061390000       0.477227210000       1.000000000000
H67 H       0.365654280000      -0.333865930000       0.519980810000       1.000000000000
H68 H       0.367198120000       0.333719580000       0.477391450000       1.000000000000
H69 H       0.716763720000      -0.309949570000       0.469125500000       1.000000000000
H70 H       0.718058370000       0.350346100000       0.527812770000       1.000000000000
H71 H       0.280425980000      -0.335150660000       0.469395280000       1.000000000000
H72 H       0.281720620000       0.325145030000       0.528082530000       1.000000000000
H73 H       0.742058340000      -0.113626860000       0.345687580000       1.000000000000
H74 H       0.256426000000       0.128822330000       0.651520450000       1.000000000000
H75 H       0.741939910000       0.156863600000       0.651220280000       1.000000000000
H76 H       0.256544420000      -0.141668160000       0.345987760000       1.000000000000
H77 H       0.679355700000      -0.046258430000       0.728500420000       1.000000000000
H78 H       0.680694420000       0.082336450000       0.268484080000       1.000000000000
H79 H       0.319128640000       0.061453890000       0.268707630000       1.000000000000
H80 H       0.317789920000      -0.067140990000       0.728723960000       1.000000000000
H81 H       0.403545130000       0.060627490000       0.319799110000       1.000000000000
H82 H       0.402466890000      -0.056548450000       0.677527930000       1.000000000000
H83 H       0.594939200000      -0.045432030000       0.677408940000       1.000000000000
H84 H       0.596017440000       0.071743910000       0.319680110000       1.000000000000
H85 H       0.589043540000       0.966163660000       0.862232130000       1.000000000000
H86 H       0.410084220000       0.048067930000       1.135710860000       1.000000000000
H87 H       0.586420600000       0.062658770000       1.139146850000       1.000000000000
H88 H       0.412707160000       0.951572830000       0.858796120000       1.000000000000
H89 H       0.542292680000      -0.185786050000       1.211848870000       1.000000000000
H90 H       0.452814560000      -0.193189850000       1.210105330000       1.000000000000
H91 H       0.546313200000       1.207421450000       0.787837640000       1.000000000000
H92 H       0.456835090000       1.200017650000       0.786094120000       1.000000000000
H93 H       0.632382340000       0.184246860000       0.981844190000       1.000000000000
H94 H       0.632358390000       0.851962700000       1.021274390000       1.000000000000
H95 H       0.366769360000       0.162268890000       0.976668590000       1.000000000000
H96 H       0.366745430000       0.829984730000       1.016098780000       1.000000000000
H97 H       0.717323890000       0.195213350000       1.034124890000       1.000000000000
H98 H       0.718110450000       0.855120140000       0.972319740000       1.000000000000
H99 H       0.281017310000       0.159111460000       1.025623230000       1.000000000000
H100 H       0.281803870000       0.819018250000       0.963818080000       1.000000000000
H101 H       0.741011200000       0.392758450000       1.157096890000       1.000000000000
H102 H       0.258116560000       0.621473130000       0.840846080000       1.000000000000
H103 H       0.743595800000       0.661643800000       0.850305890000       1.000000000000
H104 H       0.255531960000       0.352587790000       1.147637090000       1.000000000000
H105 H       0.682151800000       0.456603160000       0.772805180000       1.000000000000
H106 H       0.678515920000       0.587543810000       1.232182600000       1.000000000000
H107 H       0.316975970000       0.557628430000       1.225137800000       1.000000000000
H108 H       0.320611840000       0.426687780000       0.765760380000       1.000000000000
H109 H       0.401924990000       0.558652280000       1.175671800000       1.000000000000
H110 H       0.404744210000       0.439654460000       0.818521020000       1.000000000000
H111 H       0.597202770000       0.455579320000       0.822271180000       1.000000000000
H112 H       0.594383550000       0.574577130000       1.179421960000       1.000000000000
#END