data_C11H7
_audit_creation_method 'chmpy python library version 1.0a1'
_cell_length_a 13.779861
_cell_length_b 13.779861
_cell_length_c 13.009788
_cell_angle_alpha 90.0
_cell_angle_beta 90.0
_cell_angle_gamma 149.037753
loop_
_symmetry_equiv_pos_site_id
_symmetry_equiv_pos_as_xyz
                   1 -x,-y,-z
                   2 -x,+y,+z
                   3 +x,-y,-z
                   4 +x,+y,+z
                   5 -x,1/2-y,1/2+z
                   6 -x,1/2+y,1/2-z
                   7 +x,1/2-y,1/2+z
                   8 +x,1/2+y,1/2-z
                   9 1/2-x,-y,1/2+z
                  10 1/2-x,+y,1/2-z
                  11 1/2+x,-y,1/2+z
                  12 1/2+x,+y,1/2-z
                  13 1/2-x,1/2-y,-z
                  14 1/2-x,1/2+y,+z
                  15 1/2+x,1/2-y,-z
                  16 1/2+x,1/2+y,+z
loop_
_atom_site_label
_atom_site_type_symbol
_atom_site_fract_x
_atom_site_fract_y
_atom_site_fract_z
_atom_site_occupancy
C C       0.027778000000       0.000000000000       0.000000000000       1.000000000000
C C       0.054659000000       0.853553000000       0.051235000000       1.000000000000
C C       0.027296000000       0.698023000000       0.088883000000       1.000000000000
C C       0.052895000000       0.545151000000       0.135256000000       1.000000000000
C C       0.026782000000       0.401906000000       0.178208000000       1.000000000000
C C       0.109986000000       0.864752000000       0.076693000000       1.000000000000
C C       0.145373000000       0.741342000000       0.033188000000       1.000000000000
C C       0.195844000000       0.742393000000       0.064008000000       1.000000000000
C C       0.212853000000       0.869366000000       0.136885000000       1.000000000000
C C       0.178851000000       0.994257000000       0.180108000000       1.000000000000
C C       0.128129000000       0.991420000000       0.150786000000       1.000000000000
H H       0.093958000000       0.545811000000       0.138480000000       1.000000000000
H H       0.046893000000       0.289902000000       0.214987000000       1.000000000000
H H       0.132412000000       0.647122000000       0.973965000000       1.000000000000
H H       0.222070000000       0.642920000000       0.031934000000       1.000000000000
H H       0.252566000000       0.871134000000       0.159265000000       1.000000000000
H H       0.191868000000       0.093703000000       0.236729000000       1.000000000000
H H       0.101645000000       0.088724000000       0.183629000000       1.000000000000
#END