data_image0
_chemical_formula_structural       C168H112
_chemical_formula_sum              "C168 H112"
_cell_length_a       26.86
_cell_length_b       7.193
_cell_length_c       14.433
_cell_angle_alpha    90.0
_cell_angle_beta     90.0
_cell_angle_gamma    90.0

_space_group_name_H-M_alt    "P 1"
_space_group_IT_number       1

loop_
  _space_group_symop_operation_xyz
  'x, y, z'

loop_
  _atom_site_type_symbol
  _atom_site_label
  _atom_site_symmetry_multiplicity
  _atom_site_fract_x
  _atom_site_fract_y
  _atom_site_fract_z
  _atom_site_occupancy
  C   C1        1.0  0.027515387148088134  2.52334421612285e-07  4.33106886459682e-10  1.0000
  C   C2        1.0  0.9724846396557464  0.49999969593013005  0.49999966035662646  1.0000
  C   C3        1.0  0.972586648659527  0.9999997875733948  0.999999986965401  1.0000
  C   C4        1.0  0.02741350455858481  0.4999993551437816  0.50000008367788  1.0000
  C   C5        1.0  0.5275154621082417  0.5000001038572245  4.369429181621352e-09  1.0000
  C   C6        1.0  0.47248457576090275  0.9999999397144442  0.5000000408719395  1.0000
  C   C7        1.0  0.472586606304137  0.49999984155960353  0.9999999689889947  1.0000
  C   C8        1.0  0.5274133904309154  0.9999999652828091  0.4999999880319732  1.0000
  C   C9        1.0  0.0533232063550169  0.8573490069419886  0.049223480833846374  1.0000
  C   C10       1.0  0.946676591606194  0.6426503231576288  0.5492231680126173  1.0000
  C   C11       1.0  0.05332353968949892  0.14265103152678932  0.9507767091766228  1.0000
  C   C12       1.0  0.9466766591331027  0.35734881429794413  0.45077645149921297  1.0000
  C   C13       1.0  0.9467533358836214  0.14242947683631335  0.9506842482611663  1.0000
  C   C14       1.0  0.05324651407966006  0.35757008532746226  0.4506840611592965  1.0000
  C   C15       1.0  0.9467537878014599  0.8575695890700962  0.04931584251974881  1.0000
  C   C16       1.0  0.05324641504510768  0.6424297883122728  0.5493157521398254  1.0000
  C   C17       1.0  0.5533234820604959  0.35734906171649417  0.049223301921542416  1.0000
  C   C18       1.0  0.4466766326423946  0.14265076580509972  0.5492235255236535  1.0000
  C   C19       1.0  0.553323399817699  0.6426506081789156  0.9507763630806366  1.0000
  C   C20       1.0  0.4466765764737797  0.8573490687605233  0.45077658320112207  1.0000
  C   C21       1.0  0.4467534963436326  0.6424295535438677  0.9506842929079972  1.0000
  C   C22       1.0  0.5532465610885356  0.8575704173437869  0.45068421673402714  1.0000
  C   C23       1.0  0.4467535235928915  0.3575704502535185  0.04931573756385302  1.0000
  C   C24       1.0  0.5532463787126942  0.14242945312253583  0.5493160055136779  1.0000
  C   C25       1.0  0.026979874266331163  0.7066333043162991  0.0880440878559615  1.0000
  C   C26       1.0  0.9730200813649259  0.793365767580933  0.588043793418812  1.0000
  C   C27       1.0  0.02697979924340235  0.2933659981285287  0.911956107714422  1.0000
  C   C28       1.0  0.97302020878023  0.20663308696018762  0.4119562296925129  1.0000
  C   C29       1.0  0.9730655758349854  0.29316157059890496  0.9118350686826837  1.0000
  C   C30       1.0  0.02693431161695629  0.20683815993502602  0.41183479198353634  1.0000
  C   C31       1.0  0.9730658345736742  0.7068371067798385  0.0881651262550136  1.0000
  C   C32       1.0  0.026934140665624967  0.7931617454401101  0.5881649805701439  1.0000
  C   C33       1.0  0.5269799378989211  0.20663369072164434  0.08804380415237599  1.0000
  C   C34       1.0  0.47302007609608526  0.29336655258932787  0.5880438085285059  1.0000
  C   C35       1.0  0.5269798893816198  0.7933666956959262  0.9119562940033218  1.0000
  C   C36       1.0  0.4730201452858513  0.7066336186922352  0.4119561789835408  1.0000
  C   C37       1.0  0.47306578732346594  0.7931614295644084  0.9118349483193889  1.0000
  C   C38       1.0  0.526934258068989  0.7068382956621162  0.41183507527279467  1.0000
  C   C39       1.0  0.4730657826155913  0.20683844261825585  0.08816491973371603  1.0000
  C   C40       1.0  0.5269342462271044  0.2931617819844679  0.5881651600178107  1.0000
  C   C41       1.0  0.05201224230906167  0.5568804601596762  0.13439557289760953  1.0000
  C   C42       1.0  0.9479878123804042  0.9431193540572367  0.6343953304342443  1.0000
  C   C43       1.0  0.05201223764798915  0.4431192924965036  0.8656043187312139  1.0000
  C   C44       1.0  0.9479878412763308  0.05688066235902982  0.3656044712888988  1.0000
  C   C45       1.0  0.9479949715073587  0.44269009162663764  0.8653472705442132  1.0000
  C   C46       1.0  0.052004832327091584  0.05731004078337992  0.36534721709132706  1.0000
  C   C47       1.0  0.9479948684587456  0.5573099772092689  0.13465300679394518  1.0000
  C   C48       1.0  0.05200496290780397  0.9426899341728172  0.6346527626052338  1.0000
  C   C49       1.0  0.5520121356283171  0.056880618199592996  0.1343956834355412  1.0000
  C   C50       1.0  0.44798777330008077  0.4431195251367104  0.6343954872709133  1.0000
  C   C51       1.0  0.5520121492318615  0.9431198153298632  0.8656042893758494  1.0000
  C   C52       1.0  0.44798778961222413  0.5568805216825519  0.3656045083729916  1.0000
  C   C53       1.0  0.4479951002455096  0.9426894689683754  0.865347391675672  1.0000
  C   C54       1.0  0.5520049606765188  0.5573101937406647  0.3653471668229489  1.0000
  C   C55       1.0  0.4479950846038005  0.05731031302198707  0.13465261059741884  1.0000
  C   C56       1.0  0.552005069152125  0.44268991642593913  0.6346527253829851  1.0000
  C   C57       1.0  0.026411506584292564  0.41528734365168807  0.17624097626032878  1.0000
  C   C58       1.0  0.9735884506993532  0.08471298758924899  0.676241116119136  1.0000
  C   C59       1.0  0.02641161001482392  0.5847133782674365  0.8237591375717451  1.0000
  C   C60       1.0  0.9735885301831037  0.9152870858724655  0.32375895941399174  1.0000
  C   C61       1.0  0.9735638699468082  0.5844615854670943  0.8235949562628561  1.0000
  C   C62       1.0  0.026436133235853355  0.9155388119224258  0.3235952011743232  1.0000
  C   C63       1.0  0.9735638674595711  0.4155385979136789  0.176404906975285  1.0000
  C   C64       1.0  0.026436188257409426  0.08446150032404928  0.6764050183987006  1.0000
  C   C65       1.0  0.5264115157366553  0.915286707681828  0.17624093797101456  1.0000
  C   C66       1.0  0.4735884094379133  0.5847132887362069  0.6762410003173461  1.0000
  C   C67       1.0  0.5264114993579696  0.08471312216191626  0.8237590133725313  1.0000
  C   C68       1.0  0.47358847769189033  0.4152868634641848  0.32375871930085265  1.0000
  C   C69       1.0  0.4735637253329695  0.08446124165438915  0.8235949173965691  1.0000
  C   C70       1.0  0.5264362233561688  0.41553870485993666  0.32359523949297875  1.0000
  C   C71       1.0  0.4735637851535698  0.9155388819161386  0.17640504916970182  1.0000
  C   C72       1.0  0.5264362638395983  0.5844611861793593  0.6764048240319028  1.0000
  C   C73       1.0  0.10751250180352374  0.8678726586756891  0.07300860915564042  1.0000
  C   C74       1.0  0.8924873362310781  0.6321275320618696  0.5730088780022946  1.0000
  C   C75       1.0  0.10751283520566525  0.1321271896053616  0.9269913750683397  1.0000
  C   C76       1.0  0.892487386654523  0.36787291370574543  0.4269916123650533  1.0000
  C   C77       1.0  0.8925661308436068  0.13186690016878252  0.9269095626525748  1.0000
  C   C78       1.0  0.10743370676409249  0.3681332634772544  0.42690971465587524  1.0000
  C   C79       1.0  0.8925665742791528  0.8681336244470546  0.07308986240531995  1.0000
  C   C80       1.0  0.10743367126987345  0.6318670473865055  0.5730901233136675  1.0000
  C   C81       1.0  0.6075126918924757  0.3678725344115401  0.07300869826927256  1.0000
  C   C82       1.0  0.3924873476842552  0.13212721490230697  0.573008655453516  1.0000
  C   C83       1.0  0.6075126624846657  0.6321268138843664  0.9269912209819433  1.0000
  C   C84       1.0  0.3924873314535513  0.8678728039681474  0.4269913675442764  1.0000
  C   C85       1.0  0.3925662621619669  0.6318669842809824  0.926909922953834  1.0000
  C   C86       1.0  0.60743384305685  0.8681330250615809  0.4269097258759304  1.0000
  C   C87       1.0  0.39256626267166567  0.3681332329656148  0.07309004175483513  1.0000
  C   C88       1.0  0.6074336452572119  0.1318671190811989  0.5730901556790254  1.0000
  C   C89       1.0  0.1431261053820392  0.752046797168423  0.03143711512541687  1.0000
  C   C90       1.0  0.856873857932176  0.7479535952124988  0.5314373412059625  1.0000
  C   C91       1.0  0.14312614836664705  0.24795355098424912  0.9685629535478292  1.0000
  C   C92       1.0  0.8568738434840169  0.2520472472754418  0.46856299489297426  1.0000
  C   C93       1.0  0.8570056524041509  0.24760023849244386  0.9686845862367315  1.0000
  C   C94       1.0  0.14299421380881655  0.25239990231643344  0.46868487255137314  1.0000
  C   C95       1.0  0.8570059140523983  0.7524000144266902  0.03131512367665458  1.0000
  C   C96       1.0  0.14299427980373566  0.7476005192615939  0.5313151974231038  1.0000
  C   C97       1.0  0.6431261282592825  0.25204673678705647  0.031437103371585756  1.0000
  C   C98       1.0  0.3568738580892107  0.24795291749044426  0.5314371045991798  1.0000
  C   C99       1.0  0.64312611589959  0.7479530752247241  0.9685628518999022  1.0000
  C   C100      1.0  0.35687385132237837  0.7520470206294094  0.4685629143025624  1.0000
  C   C101      1.0  0.35700567102620295  0.7476004078621914  0.9686849495951253  1.0000
  C   C102      1.0  0.6429943454071881  0.7523994366741322  0.4686849816625037  1.0000
  C   C103      1.0  0.3570056921362352  0.2523997358702902  0.03131503629014391  1.0000
  C   C104      1.0  0.6429943078582699  0.2476002260407193  0.5313152773984622  1.0000
  C   C105      1.0  0.1921965754438675  0.7495759867651396  0.06307268939140767  1.0000
  C   C106      1.0  0.8078034237448737  0.7504238378803971  0.5630724733118339  1.0000
  C   C107      1.0  0.19219654383858378  0.2504237690278359  0.9369273243077894  1.0000
  C   C108      1.0  0.8078034112442144  0.2495761798386283  0.4369272299212182  1.0000
  C   C109      1.0  0.8078878439304459  0.2500289616900568  0.9372817560181154  1.0000
  C   C110      1.0  0.19211213726114248  0.24997123338226884  0.43728153896808386  1.0000
  C   C111      1.0  0.8078879840901431  0.7499711157236465  0.0627187055970453  1.0000
  C   C112      1.0  0.19211222297025365  0.7500289670653753  0.5627185867421077  1.0000
  C   C113      1.0  0.6921965079182051  0.24957638068130772  0.0630726288286892  1.0000
  C   C114      1.0  0.30780346139040077  0.25042362759050424  0.5630726342956925  1.0000
  C   C115      1.0  0.6921964631032812  0.7504236736912835  0.9369273575251094  1.0000
  C   C116      1.0  0.30780336081643556  0.7495763198411004  0.4369272929694804  1.0000
  C   C117      1.0  0.3078878799216675  0.750028805280012  0.9372812662726263  1.0000
  C   C118      1.0  0.6921123107651721  0.7499710384275973  0.4372814025879733  1.0000
  C   C119      1.0  0.3078878520821947  0.24997103177461752  0.0627185897683296  1.0000
  C   C120      1.0  0.692112293078222  0.25002934844044544  0.5627187616587322  1.0000
  C   C121      1.0  0.20685925239824052  0.8643037447721771  0.1363924734185071  1.0000
  C   C122      1.0  0.7931406635833983  0.6356962603742031  0.636392401501429  1.0000
  C   C123      1.0  0.20685924649946075  0.13569611475472335  0.863607538419384  1.0000
  C   C124      1.0  0.7931406412857064  0.3643037872844952  0.3636073842939419  1.0000
  C   C125      1.0  0.7931586038086637  0.13552324097868512  0.863931465234303  1.0000
  C   C126      1.0  0.20684136985984578  0.3644764088334541  0.36393146184180486  1.0000
  C   C127      1.0  0.7931585444021025  0.8644769647686655  0.1360685809578904  1.0000
  C   C128      1.0  0.20684140106031274  0.6355226253005268  0.6360684760687622  1.0000
  C   C129      1.0  0.7068592430459532  0.36430337809318236  0.13639261697469462  1.0000
  C   C130      1.0  0.2931407011786038  0.13569661379603015  0.6363926054842355  1.0000
  C   C131      1.0  0.7068593749938196  0.6356968667679219  0.863607592386458  1.0000
  C   C132      1.0  0.29314074214444846  0.8643034696616309  0.36360747667383364  1.0000
  C   C133      1.0  0.29315854965020854  0.6355228333043549  0.8639313455660973  1.0000
  C   C134      1.0  0.7068414163601111  0.8644769738526438  0.3639314258183311  1.0000
  C   C135      1.0  0.2931586173589231  0.36447686456825096  0.1360686034638474  1.0000
  C   C136      1.0  0.706841442065244  0.13552291002743377  0.6360685638822542  1.0000
  C   C137      1.0  0.17182855757113902  0.9808919206175241  0.17821891693481412  1.0000
  C   C138      1.0  0.828171277229722  0.5191078055638116  0.6782186967252172  1.0000
  C   C139      1.0  0.17182869284475707  0.019108273013398548  0.8217811396220561  1.0000
  C   C140      1.0  0.8281714296193446  0.4808911940050834  0.32178106966418346  1.0000
  C   C141      1.0  0.8281486016049695  0.019050332891761383  0.8218953249073471  1.0000
  C   C142      1.0  0.1718515244899832  0.4809496436735296  0.3218950025668603  1.0000
  C   C143      1.0  0.8281484335947499  0.9809494595637701  0.1781053577571989  1.0000
  C   C144      1.0  0.17185144384372783  0.5190500592536359  0.6781051486735088  1.0000
  C   C145      1.0  0.6718286439304628  0.4808916084325509  0.17821879710801283  1.0000
  C   C146      1.0  0.32817137676470426  0.01910850713156579  0.678218651332236  1.0000
  C   C147      1.0  0.6718286177486655  0.5191083369151325  0.8217812534660374  1.0000
  C   C148      1.0  0.32817136252297296  0.9808915749876314  0.3217811861532446  1.0000
  C   C149      1.0  0.3281485375923427  0.5190502722043983  0.8218946225137906  1.0000
  C   C150      1.0  0.6718513689505198  0.9809499452515666  0.3218948131640969  1.0000
  C   C151      1.0  0.3281484893904906  0.48094955683515916  0.17810522265023834  1.0000
  C   C152      1.0  0.671851405768644  0.019050555596049873  0.6781050145347296  1.0000
  C   C153      1.0  0.12260964063126398  0.9814058126440659  0.14697454342354369  1.0000
  C   C154      1.0  0.8773902435951975  0.5185941974877026  0.6469749249331491  1.0000
  C   C155      1.0  0.12260979450337467  0.018593978410621707  0.8530252315164376  1.0000
  C   C156      1.0  0.877390306179676  0.481405848197052  0.35302540113742403  1.0000
  C   C157      1.0  0.8774057911211425  0.018421821089291617  0.8529532051404843  1.0000
  C   C158      1.0  0.12259417968916697  0.48157780109368614  0.3529535400311767  1.0000
  C   C159      1.0  0.8774058394938636  0.9815771753018051  0.1470462337445622  1.0000
  C   C160      1.0  0.12259411247416928  0.5184224498039797  0.6470463972242709  1.0000
  C   C161      1.0  0.6226097087114717  0.4814056968270342  0.1469747772391267  1.0000
  C   C162      1.0  0.3773902481864963  0.01859412360570407  0.6469746322818412  1.0000
  C   C163      1.0  0.6226098141182248  0.5185940967292378  0.8530252933712421  1.0000
  C   C164      1.0  0.377390322217744  0.9814060006164407  0.3530254323259622  1.0000
  C   C165      1.0  0.3774057791033036  0.5184225831914147  0.8529537083735071  1.0000
  C   C166      1.0  0.6225940595145675  0.9815776199733498  0.35295353985451233  1.0000
  C   C167      1.0  0.37740582440614817  0.4815777766445828  0.14704642511026728  1.0000
  C   C168      1.0  0.6225940759493398  0.01842224021930541  0.647046261755291  1.0000
  H   H1        1.0  0.09249723624431822  0.5566791001284083  0.1363500911770932  1.0000
  H   H2        1.0  0.9075028572384254  0.943320872165799  0.6363501279930392  1.0000
  H   H3        1.0  0.09249731957812046  0.44332100818269615  0.8636498745879426  1.0000
  H   H4        1.0  0.9075028935327285  0.05667906470198812  0.363649888300932  1.0000
  H   H5        1.0  0.9075162757482028  0.4423629231258832  0.86313345542774  1.0000
  H   H6        1.0  0.09248341415029103  0.05763703584906845  0.36313352791505216  1.0000
  H   H7        1.0  0.9075163573376857  0.5576369912686393  0.1368664300981332  1.0000
  H   H8        1.0  0.09248359694036856  0.9423632450991619  0.6368665711954441  1.0000
  H   H9        1.0  0.5924971786109255  0.05667901374572749  0.1363500790118375  1.0000
  H   H10       1.0  0.4075026958053466  0.44332068889024895  0.6363500741360325  1.0000
  H   H11       1.0  0.592497198352365  0.9433209009248309  0.8636499113345092  1.0000
  H   H12       1.0  0.40750276809918556  0.5566790536934161  0.3636499190314066  1.0000
  H   H13       1.0  0.4075164976347604  0.942363375411858  0.863133401508124  1.0000
  H   H14       1.0  0.5924835658606399  0.557636802182045  0.3631335474724099  1.0000
  H   H15       1.0  0.40751651287695545  0.0576366719314159  0.13686653985871844  1.0000
  H   H16       1.0  0.592483729958944  0.44236327746328996  0.6368665685161865  1.0000
  H   H17       1.0  0.04634729124589327  0.3036238798545828  0.21117010929261346  1.0000
  H   H18       1.0  0.9536528001608003  0.19637693222634783  0.7111703208674031  1.0000
  H   H19       1.0  0.04634739343955886  0.6963771124322227  0.7888295381655405  1.0000
  H   H20       1.0  0.95365274162548  0.8036235267481171  0.2888297908255282  1.0000
  H   H21       1.0  0.9535959474061136  0.695756291293495  0.7884292188215976  1.0000
  H   H22       1.0  0.046403933627777914  0.8042444332278114  0.28842940577753845  1.0000
  H   H23       1.0  0.9535960683475673  0.30424442138178664  0.21157055098646327  1.0000
  H   H24       1.0  0.04640400200338209  0.1957562477136727  0.7115707227067832  1.0000
  H   H25       1.0  0.5463474120616448  0.8036233635124683  0.21117029466667836  1.0000
  H   H26       1.0  0.45365259193524793  0.6963765933507342  0.7111702842654689  1.0000
  H   H27       1.0  0.5463474521286045  0.196376636338963  0.7888297283292046  1.0000
  H   H28       1.0  0.45365261459731565  0.3036231169958133  0.2888297398305638  1.0000
  H   H29       1.0  0.4535960103115139  0.1957558941457102  0.7884293364111822  1.0000
  H   H30       1.0  0.5464040663639642  0.30424401876940116  0.2884293202663319  1.0000
  H   H31       1.0  0.4535959723765948  0.804244011628835  0.21157072505969673  1.0000
  H   H32       1.0  0.5464041162729516  0.6957556950334878  0.7115706485013188  1.0000
  H   H33       1.0  0.13199253691420518  0.6630760399105662  0.9739215625961639  1.0000
  H   H34       1.0  0.868007473052985  0.836923995721952  0.4739214319912313  1.0000
  H   H35       1.0  0.13199241897916866  0.3369242406164553  0.026078556322064243  1.0000
  H   H36       1.0  0.8680074894714896  0.16307593758450967  0.5260783240071625  1.0000
  H   H37       1.0  0.8682153581688493  0.3364811035758498  0.026182494903750044  1.0000
  H   H38       1.0  0.13178466344042172  0.16351878214170124  0.5261825059326257  1.0000
  H   H39       1.0  0.8682153953559684  0.6635188787083964  0.9738174818697761  1.0000
  H   H40       1.0  0.1317846112108431  0.8364809529505971  0.47381740993082  1.0000
  H   H41       1.0  0.6319925313960997  0.16307602410706845  0.9739216411855046  1.0000
  H   H42       1.0  0.3680074672184359  0.3369239826550936  0.4739216903342001  1.0000
  H   H43       1.0  0.6319925883681886  0.8369239943893994  0.026078279430898403  1.0000
  H   H44       1.0  0.3680074144103419  0.6630760341607591  0.5260782160150995  1.0000
  H   H45       1.0  0.3682155155597053  0.8364813269680836  0.026182710258837078  1.0000
  H   H46       1.0  0.6317846472433446  0.6635188127860097  0.52618261007444  1.0000
  H   H47       1.0  0.3682154128135136  0.1635187316729798  0.9738173008206001  1.0000
  H   H48       1.0  0.6317846147706992  0.3364807046298016  0.4738175969989118  1.0000
  H   H49       1.0  0.21921409156704494  0.6571985287823822  0.030573857989490485  1.0000
  H   H50       1.0  0.7807859436682762  0.8428015054466199  0.5305739044370817  1.0000
  H   H51       1.0  0.2192138606239594  0.3428009603613417  0.9694258364814142  1.0000
  H   H52       1.0  0.7807860688932825  0.15719905845295273  0.4694259786998751  1.0000
  H   H53       1.0  0.7808913358497064  0.34219537869052785  0.9699853602736138  1.0000
  H   H54       1.0  0.21910863808051445  0.15780481943032934  0.46998526993697964  1.0000
  H   H55       1.0  0.7808913878036661  0.6578050871284639  0.03001477609193242  1.0000
  H   H56       1.0  0.21910868585032903  0.8421954700319514  0.5300145934328506  1.0000
  H   H57       1.0  0.7192140119675557  0.1571990744416243  0.03057411280938826  1.0000
  H   H58       1.0  0.28078602763099925  0.3428009340200714  0.5305741868035847  1.0000
  H   H59       1.0  0.7192140489108746  0.842801105911978  0.9694258504505987  1.0000
  H   H60       1.0  0.28078599725630676  0.657198797837344  0.46942599518760947  1.0000
  H   H61       1.0  0.2808914409120935  0.842195008594767  0.9699853430910137  1.0000
  H   H62       1.0  0.7191087119904099  0.6578044232423605  0.46998550646576565  1.0000
  H   H63       1.0  0.2808913345309793  0.15780490164913877  0.03001466908937349  1.0000
  H   H64       1.0  0.7191088272904591  0.34219546012467605  0.5300145600501006  1.0000
  H   H65       1.0  0.24535861188671265  0.8620852937385839  0.16054041246520642  1.0000
  H   H66       1.0  0.7546414564477485  0.6379148617496698  0.6605404673442131  1.0000
  H   H67       1.0  0.2453585521474192  0.13791501874975443  0.8394596253020683  1.0000
  H   H68       1.0  0.7546413396908624  0.3620853220843018  0.33945973397848145  1.0000
  H   H69       1.0  0.7546338441970549  0.13779078125065608  0.839924020844386  1.0000
  H   H70       1.0  0.2453662623605323  0.36220927828375693  0.3399241683408281  1.0000
  H   H71       1.0  0.7546336055964086  0.8622092875310662  0.16007606335715932  1.0000
  H   H72       1.0  0.24536622469385874  0.6377912172204122  0.660075926160314  1.0000
  H   H73       1.0  0.7453585940106829  0.3620853243001599  0.16054024040329676  1.0000
  H   H74       1.0  0.2546412938484021  0.13791477882010822  0.660540379082866  1.0000
  H   H75       1.0  0.7453586030007358  0.6379146821555076  0.8394595987967222  1.0000
  H   H76       1.0  0.25464135516302416  0.8620852743316574  0.33945967580949993  1.0000
  H   H77       1.0  0.25463371962650455  0.637790829755565  0.8399240627652071  1.0000
  H   H78       1.0  0.7453661829292403  0.8622089451740205  0.3399243250733162  1.0000
  H   H79       1.0  0.2546337379271872  0.3622092178106412  0.1600759243482725  1.0000
  H   H80       1.0  0.7453663188388475  0.13779114011554272  0.6600757812427497  1.0000
  H   H81       1.0  0.18254468624947098  0.07148912323323928  0.23553630174301507  1.0000
  H   H82       1.0  0.8174554185084083  0.4285109740643282  0.7355363242584597  1.0000
  H   H83       1.0  0.18254463175063998  0.9285110634046388  0.7644638350148149  1.0000
  H   H84       1.0  0.8174553713172094  0.571489001630112  0.2644640710892356  1.0000
  H   H85       1.0  0.8173667373794731  0.9285752849341509  0.7645737930958115  1.0000
  H   H86       1.0  0.18263316861223414  0.5714251033404524  0.26457372452919276  1.0000
  H   H87       1.0  0.8173667043515003  0.07142556771748378  0.2354264509183506  1.0000
  H   H88       1.0  0.18263329113783833  0.4285747346226921  0.735426545109072  1.0000
  H   H89       1.0  0.6825445728003413  0.5714889450568672  0.23553592461727654  1.0000
  H   H90       1.0  0.3174553965282816  0.9285114941007039  0.7355359334317938  1.0000
  H   H91       1.0  0.6825446448018487  0.4285113609350261  0.7644641569725956  1.0000
  H   H92       1.0  0.3174553202076319  0.07148872555307734  0.26446408254485243  1.0000
  H   H93       1.0  0.31736663784615055  0.4285746423428978  0.7645735159363398  1.0000
  H   H94       1.0  0.6826333224779896  0.07142530510634539  0.2645735549733284  1.0000
  H   H95       1.0  0.3173667348950444  0.5714253247663131  0.23542648250492043  1.0000
  H   H96       1.0  0.682633218312398  0.9285749767066923  0.7354262742116505  1.0000
  H   H97       1.0  0.09517050198416525  0.0702066392805205  0.1805958206048828  1.0000
  H   H98       1.0  0.9048295257140693  0.4297932220803961  0.6805957222016504  1.0000
  H   H99       1.0  0.09517055095684668  0.92979337651773  0.8194041758131824  1.0000
  H   H100      1.0  0.9048294856188331  0.5702066673985172  0.3194041911568961  1.0000
  H   H101      1.0  0.904807138152061  0.9297003421355793  0.8191601757995147  1.0000
  H   H102      1.0  0.09519302253124975  0.570299560172071  0.3191602357898921  1.0000
  H   H103      1.0  0.9048067846330387  0.07029920328119106  0.1808396366129259  1.0000
  H   H104      1.0  0.0951930682013603  0.42970042801164204  0.6808398156667257  1.0000
  H   H105      1.0  0.5951705228124079  0.5702067987092645  0.18059576627927135  1.0000
  H   H106      1.0  0.40482947065494174  0.9297935352720342  0.6805957731415772  1.0000
  H   H107      1.0  0.5951704765095003  0.4297933900227717  0.819404259236305  1.0000
  H   H108      1.0  0.40482953602234345  0.07020661612052179  0.3194041933755755  1.0000
  H   H109      1.0  0.4048068227835109  0.4297006667376903  0.8191602347020651  1.0000
  H   H110      1.0  0.5951929721131223  0.07030002824567495  0.3191600906999582  1.0000
  H   H111      1.0  0.4048069326967572  0.5702993287366475  0.18083973640889092  1.0000
  H   H112      1.0  0.5951930577483031  0.9297001918145213  0.6808399000992532  1.0000
