data_image0
_chemical_formula_structural       C168H112
_chemical_formula_sum              "C168 H112"
_cell_length_a       26.699725302058336
_cell_length_b       7.628141175244856
_cell_length_c       15.005103946875689
_cell_angle_alpha    90.05452003646967
_cell_angle_beta     89.84275617234789
_cell_angle_gamma    90.00185154213014

_space_group_name_H-M_alt    "P 1"
_space_group_IT_number       1

loop_
  _space_group_symop_operation_xyz
  'x, y, z'

loop_
  _atom_site_type_symbol
  _atom_site_label
  _atom_site_symmetry_multiplicity
  _atom_site_fract_x
  _atom_site_fract_y
  _atom_site_fract_z
  _atom_site_occupancy
  C   C1        1.0  0.028120032497816902  0.9975846407479055  0.999148524275429  1.0000
  C   C2        1.0  0.9718379411966349  0.49854662397965566  0.5012002955964934  1.0000
  C   C3        1.0  0.9730211486477509  0.0026599544432980115  0.0011817721497068697  1.0000
  C   C4        1.0  0.026940190458063527  0.503780808560267  0.4990247514619304  1.0000
  C   C5        1.0  0.5281212315408998  0.49759900427157494  0.9991683280593877  1.0000
  C   C6        1.0  0.4718435785566107  0.9985485010800008  0.5011839575953021  1.0000
  C   C7        1.0  0.47302324802316525  0.5026526403647876  0.001183161068064807  1.0000
  C   C8        1.0  0.5269463046993804  0.003785020121706448  0.49901586494113026  1.0000
  C   C9        1.0  0.05341879338828825  0.8653178619501491  0.047975574699492395  1.0000
  C   C10       1.0  0.9455469265380445  0.6259524003406511  0.5521780415816291  1.0000
  C   C11       1.0  0.05442406316211736  0.12526327743022353  0.9485092937102075  1.0000
  C   C12       1.0  0.9465454072217272  0.36630493176725276  0.4522327696354654  1.0000
  C   C13       1.0  0.947741994923142  0.13476494115820217  0.9521611940076089  1.0000
  C   C14       1.0  0.053215252696450104  0.37613248839015473  0.4482407991280199  1.0000
  C   C15       1.0  0.9467211930515405  0.875308311730876  0.0520641989202709  1.0000
  C   C16       1.0  0.05224408464012589  0.6364652867916161  0.5477514321347081  1.0000
  C   C17       1.0  0.5534165377451824  0.36530899153569796  0.04798037589884626  1.0000
  C   C18       1.0  0.4455547128086178  0.12595120393489406  0.5521677983941055  1.0000
  C   C19       1.0  0.5544254181080143  0.6252493774510978  0.948515364358859  1.0000
  C   C20       1.0  0.44654696795771565  0.8663077046751769  0.4522277935532414  1.0000
  C   C21       1.0  0.44774547639408085  0.6347665259651363  0.9521718016693115  1.0000
  C   C22       1.0  0.5532216105552573  0.8761360028582298  0.4482373296531172  1.0000
  C   C23       1.0  0.4467238205280832  0.3753235218761695  0.05207761499083709  1.0000
  C   C24       1.0  0.5522449397047416  0.1364505801861864  0.5477636741291151  1.0000
  C   C25       1.0  0.026394677572060248  0.7311764027092076  0.09165987234228859  1.0000
  C   C26       1.0  0.9713851138186756  0.7655455055472429  0.5934847131656945  1.0000
  C   C27       1.0  0.028590196225915646  0.2649282077345858  0.9073726183560116  1.0000
  C   C28       1.0  0.9735498559045037  0.23174260629183185  0.4087546200459675  1.0000
  C   C29       1.0  0.9747672908005247  0.26958615228216615  0.9090648527993828  1.0000
  C   C30       1.0  0.0273631635592837  0.2367120372582349  0.40675818979055384  1.0000
  C   C31       1.0  0.9725842084836682  0.7362425501530804  0.09369544584582683  1.0000
  C   C32       1.0  0.02520459076993063  0.7708658135888344  0.5912729317460083  1.0000
  C   C33       1.0  0.5263907633020947  0.2311865338604885  0.09167211441700736  1.0000
  C   C34       1.0  0.4713926497173384  0.265513656115439  0.5935053224026297  1.0000
  C   C35       1.0  0.5285940163524404  0.7649146077456314  0.9073810583118929  1.0000
  C   C36       1.0  0.4735547057712407  0.731755151941541  0.4087569766431546  1.0000
  C   C37       1.0  0.4747732140466692  0.7695657929416002  0.9090677013087245  1.0000
  C   C38       1.0  0.5273672012413607  0.7367144660823488  0.40676947499105404  1.0000
  C   C39       1.0  0.4725831090863665  0.2362467951621863  0.09369643615479338  1.0000
  C   C40       1.0  0.5252080376610427  0.2708571382134876  0.591281370630595  1.0000
  C   C41       1.0  0.05100089576247457  0.5943316597082065  0.13923334367242216  1.0000
  C   C42       1.0  0.9457507633903293  0.8978683057615938  0.6430651647061395  1.0000
  C   C43       1.0  0.05423605393427128  0.3977334003648847  0.8582945705929899  1.0000
  C   C44       1.0  0.948927030758185  0.09459688206692608  0.3612685201408985  1.0000
  C   C45       1.0  0.9501757071624494  0.40662569481653865  0.8615715935433241  1.0000
  C   C46       1.0  0.05296930628662819  0.10430437967164222  0.35722231407155436  1.0000
  C   C47       1.0  0.9469566509647895  0.6042049291080683  0.14333093593590646  1.0000
  C   C48       1.0  0.04980436588078638  0.908249252597347  0.63867801422143  1.0000
  C   C49       1.0  0.550996292483228  0.09432435371321922  0.13923068639241487  1.0000
  C   C50       1.0  0.4457585522736014  0.3978543560597288  0.6430703663941078  1.0000
  C   C51       1.0  0.5542322816421417  0.8977276268493487  0.8583032512835921  1.0000
  C   C52       1.0  0.44893358072587075  0.5946279937116844  0.3612568923261567  1.0000
  C   C53       1.0  0.45018370032958976  0.9066141930277634  0.8615796492659282  1.0000
  C   C54       1.0  0.5529686334164804  0.6042773102864741  0.3572509476982481  1.0000
  C   C55       1.0  0.4469626106759791  0.10419662894524857  0.14332549307127465  1.0000
  C   C56       1.0  0.5498001072311453  0.4082411336681735  0.6386896608192648  1.0000
  C   C57       1.0  0.024901074168427458  0.46883278730559164  0.18546051815957182  1.0000
  C   C58       1.0  0.9708567434999993  0.02860785977809475  0.6870904597466774  1.0000
  C   C59       1.0  0.02912571660836689  0.5280876952590712  0.8140763273911863  1.0000
  C   C60       1.0  0.9749906542405856  0.9686958278727577  0.3151397690914091  1.0000
  C   C61       1.0  0.9762676436036508  0.5326540257065774  0.8157186754264714  1.0000
  C   C62       1.0  0.027839762810602027  0.9737830896357238  0.31303474892564  1.0000
  C   C63       1.0  0.9720677717278257  0.47392102034665345  0.18759941609679595  1.0000
  C   C64       1.0  0.023701894668948193  0.03399603394861973  0.6848316971906798  1.0000
  C   C65       1.0  0.5249004104878443  0.9688114982946421  0.1854556092141948  1.0000
  C   C66       1.0  0.4708558224119117  0.5286313342021228  0.6870786598852204  1.0000
  C   C67       1.0  0.5291263987112578  0.02808709835259385  0.8140909733847959  1.0000
  C   C68       1.0  0.47499182496484477  0.46868384803074964  0.3151579614866677  1.0000
  C   C69       1.0  0.4762713051640299  0.03265295074018716  0.8157280924576638  1.0000
  C   C70       1.0  0.5278401946373242  0.47377064249316475  0.31304883062305705  1.0000
  C   C71       1.0  0.47206858298882465  0.9739084402410464  0.1875916100375256  1.0000
  C   C72       1.0  0.5236965900269726  0.5339852027695943  0.6848344893461753  1.0000
  C   C73       1.0  0.10811650930717626  0.8694171345668111  0.06564635673960911  1.0000
  C   C74       1.0  0.8915353993231463  0.6103952053698143  0.5749245050905774  1.0000
  C   C75       1.0  0.10841544550448351  0.10963981633502379  0.9256311896330737  1.0000
  C   C76       1.0  0.8919144344062016  0.3711939519560542  0.434155578578643  1.0000
  C   C77       1.0  0.8931542935393152  0.12918125559720717  0.9337175343613071  1.0000
  C   C78       1.0  0.10731540914706915  0.39059126698489594  0.4260331052413992  1.0000
  C   C79       1.0  0.8926141613471666  0.8898232080331883  0.07419862938006881  1.0000
  C   C80       1.0  0.10692750331426845  0.6321127721459459  0.5655807495661469  1.0000
  C   C81       1.0  0.6081110391065232  0.36941981264641305  0.06566116102630173  1.0000
  C   C82       1.0  0.39154247384217394  0.11039436369249371  0.5749309767340669  1.0000
  C   C83       1.0  0.6084129420600229  0.6096294194761106  0.9256332399345237  1.0000
  C   C84       1.0  0.3919184764900832  0.8712057494271791  0.4341442120491545  1.0000
  C   C85       1.0  0.39315661537571  0.6292354504982637  0.9337380721979908  1.0000
  C   C86       1.0  0.6073188242896104  0.8905538592853758  0.4260403226077671  1.0000
  C   C87       1.0  0.3926187200133437  0.3898268938498568  0.0742200809907312  1.0000
  C   C88       1.0  0.606926576778773  0.13210227339979802  0.5656042688786942  1.0000
  C   C89       1.0  0.14088550259714394  0.744638003689559  0.029561174428720624  1.0000
  C   C90       1.0  0.8555754490446243  0.7278395217404685  0.5426753562322468  1.0000
  C   C91       1.0  0.14442619265648876  0.22719013727853682  0.9577341566469612  1.0000
  C   C92       1.0  0.8589182626004839  0.2461993711451419  0.4692266346839347  1.0000
  C   C93       1.0  0.8598937172566585  0.25358041703831863  0.9686680913483301  1.0000
  C   C94       1.0  0.14280638943058932  0.2718519613948356  0.45868472843517727  1.0000
  C   C95       1.0  0.8571240799456122  0.7707025044840052  0.041782278984629904  1.0000
  C   C96       1.0  0.13987967178045022  0.7566587874863382  0.5298779948467263  1.0000
  C   C97       1.0  0.6408812944740511  0.24465700546854396  0.029570907191264983  1.0000
  C   C98       1.0  0.3555843637693901  0.22784792999059134  0.5426861617051947  1.0000
  C   C99       1.0  0.6444189612752766  0.7272082566719917  0.9577187746791345  1.0000
  C   C100      1.0  0.35892179213211084  0.7462130077943475  0.4692089582324119  1.0000
  C   C101      1.0  0.3598989341998268  0.7536401998978923  0.9686885275870389  1.0000
  C   C102      1.0  0.6428062458488495  0.7718088207450176  0.4586947775217192  1.0000
  C   C103      1.0  0.3571222187623699  0.27072600558871257  0.04180899041293736  1.0000
  C   C104      1.0  0.6398840747307577  0.2566300478758076  0.5299010549811474  1.0000
  C   C105      1.0  0.19082568124199978  0.7387622913094211  0.05562867803369431  1.0000
  C   C106      1.0  0.8064229282310752  0.7225113490733613  0.5737405864077769  1.0000
  C   C107      1.0  0.1935103695150813  0.22199776806203458  0.926314514509522  1.0000
  C   C108      1.0  0.8090545492250703  0.24136929653538428  0.4426489178791385  1.0000
  C   C109      1.0  0.8100242401726743  0.25697147973484125  0.9420306783347793  1.0000
  C   C110      1.0  0.19204582365127423  0.27494848437891944  0.42807046970054796  1.0000
  C   C111      1.0  0.8078604642793075  0.7743702425868896  0.07229959794223871  1.0000
  C   C112      1.0  0.18979809337033066  0.7617711242241676  0.5561327324272596  1.0000
  C   C113      1.0  0.6908198001317285  0.23880206254537178  0.05563763198658729  1.0000
  C   C114      1.0  0.30642807862759003  0.22249864047920206  0.5737332519217435  1.0000
  C   C115      1.0  0.6935019768622477  0.7220263734517461  0.9262985426637277  1.0000
  C   C116      1.0  0.30906093485242647  0.741400301407046  0.44261475013268736  1.0000
  C   C117      1.0  0.3100276306471908  0.7570312162130817  0.9420516661405299  1.0000
  C   C118      1.0  0.6920462162091534  0.774899563046509  0.4280827287376254  1.0000
  C   C119      1.0  0.30785471119613766  0.2744240073317064  0.07232137338272121  1.0000
  C   C120      1.0  0.6898031853261751  0.26172466014967555  0.5561507176788019  1.0000
  C   C121      1.0  0.20898974419962368  0.8574663238389992  0.1185638832901442  1.0000
  C   C122      1.0  0.7922877762075422  0.5997637566975601  0.6379631565647171  1.0000
  C   C123      1.0  0.20755048608295548  0.09919859018281219  0.8619302921167034  1.0000
  C   C124      1.0  0.791191774609988  0.361461196748728  0.38024795705477615  1.0000
  C   C125      1.0  0.7924276015448922  0.13613881472916448  0.879639251899117  1.0000
  C   C126      1.0  0.20679353780180895  0.3969468189848628  0.3639057327484151  1.0000
  C   C127      1.0  0.7931212181881393  0.8971982128505401  0.13617977457503583  1.0000
  C   C128      1.0  0.20778226176746012  0.642639029356719  0.6188942050161073  1.0000
  C   C129      1.0  0.7089905842422275  0.3575260754656999  0.11855095488601429  1.0000
  C   C130      1.0  0.29228998415562063  0.09977659132363186  0.6379610518344836  1.0000
  C   C131      1.0  0.7075420241470081  0.5992679901545955  0.8618947350063215  1.0000
  C   C132      1.0  0.29119655618498913  0.8615080794599478  0.3802229887479152  1.0000
  C   C133      1.0  0.29242436555689677  0.6361990147606573  0.8796633737690256  1.0000
  C   C134      1.0  0.7067957736074545  0.8969022415805361  0.3639212342953731  1.0000
  C   C135      1.0  0.2931191845369188  0.39725896256621146  0.13620360616506627  1.0000
  C   C136      1.0  0.7077904024348344  0.14258554893236097  0.6189071064172488  1.0000
  C   C137      1.0  0.17673754669171202  0.9822769614118623  0.15510521209740655  1.0000
  C   C138      1.0  0.8277374872653959  0.48228990946251055  0.6708280335106518  1.0000
  C   C139      1.0  0.17207059418053494  0.9814198587988462  0.8293198700172474  1.0000
  C   C140      1.0  0.8236468744102232  0.4867817145412342  0.3448445920815213  1.0000
  C   C141      1.0  0.8251574926735397  0.01148703004955087  0.8443058694070411  1.0000
  C   C142      1.0  0.17184509344365206  0.5159171413967479  0.33075614704332107  1.0000
  C   C143      1.0  0.8280847883953865  0.0164417568074382  0.1691555644371448  1.0000
  C   C144      1.0  0.17537981026214278  0.5179540879581733  0.6550038148423696  1.0000
  C   C145      1.0  0.6767352117860547  0.4823246612962384  0.1550881507763552  1.0000
  C   C146      1.0  0.32773668605201467  0.9822991684384735  0.6708196665511084  1.0000
  C   C147      1.0  0.6720624912598757  0.48148669088648616  0.829297663988069  1.0000
  C   C148      1.0  0.32365511016888726  0.9868309654146785  0.34483419096074647  1.0000
  C   C149      1.0  0.325154669008756  0.5115544707499414  0.8443312256125475  1.0000
  C   C150      1.0  0.6718477332798168  0.01587945071901853  0.33077064348580143  1.0000
  C   C151      1.0  0.328091898019353  0.5164762472927994  0.16917596320643863  1.0000
  C   C152      1.0  0.6753809489787319  0.017931232199262216  0.6550191833244351  1.0000
  C   C153      1.0  0.12679260329018996  0.9876748980490747  0.1288124156236843  1.0000
  C   C154      1.0  0.8768207130062526  0.48809692975958613  0.6394749519609713  1.0000
  C   C155      1.0  0.12305759842962434  0.987062619934796  0.8610419113978713  1.0000
  C   C156      1.0  0.8735234507322618  0.4909845547511819  0.37159233296474925  1.0000
  C   C157      1.0  0.8750153992378539  0.008597196758954474  0.8711758979285146  1.0000
  C   C158      1.0  0.12264538045962561  0.5123170269957231  0.36167517798430016  1.0000
  C   C159      1.0  0.877292544669729  0.012317498556231765  0.13831253732037924  1.0000
  C   C160      1.0  0.12546747616801865  0.5132801023695281  0.6285055271508402  1.0000
  C   C161      1.0  0.6267876072696119  0.4877032450427763  0.12881280587842775  1.0000
  C   C162      1.0  0.37682224911378676  0.9880786224574803  0.6394724023444016  1.0000
  C   C163      1.0  0.6230540894493165  0.48708233042663307  0.8610313945227183  1.0000
  C   C164      1.0  0.3735324760355738  0.9910115420253849  0.3715828345587135  1.0000
  C   C165      1.0  0.3750139074265933  0.508671429545491  0.871191901618408  1.0000
  C   C166      1.0  0.6226480380117475  0.012275280274232747  0.36168644493973867  1.0000
  C   C167      1.0  0.37730003082626007  0.5123182801936911  0.13833198062967328  1.0000
  C   C168      1.0  0.6254682311497248  0.01326327960912699  0.6285259399899853  1.0000
  H   H1        1.0  0.0919024801337522  0.5911675893702456  0.1389667849385222  1.0000
  H   H2        1.0  0.9048845067320637  0.892952756584525  0.6461896830259274  1.0000
  H   H3        1.0  0.09512075188323116  0.393473783397308  0.8557905415831193  1.0000
  H   H4        1.0  0.9080180105453676  0.09176470497831218  0.3614655301156438  1.0000
  H   H5        1.0  0.9092658003485652  0.40944658699831904  0.8616020678917197  1.0000
  H   H6        1.0  0.0938316490965644  0.1091638918499408  0.3542566633646324  1.0000
  H   H7        1.0  0.9060943681642764  0.60904154382059  0.14631842460889338  1.0000
  H   H8        1.0  0.0907133881116644  0.9116218040609971  0.638291669354045  1.0000
  H   H9        1.0  0.5918972457491286  0.09116473927593242  0.13895489298215194  1.0000
  H   H10       1.0  0.4048946834930756  0.3929549804070192  0.6461604615064751  1.0000
  H   H11       1.0  0.5951129106480314  0.8934895410854438  0.8557849909231456  1.0000
  H   H12       1.0  0.4080255368655412  0.5917699402234646  0.36143538164354955  1.0000
  H   H13       1.0  0.40927552513559196  0.9094681652806628  0.861609351664572  1.0000
  H   H14       1.0  0.5938295633686768  0.609125876430626  0.3542713635489328  1.0000
  H   H15       1.0  0.4061040096300838  0.10901759938652927  0.14632494639433943  1.0000
  H   H16       1.0  0.590705223559321  0.41166147636354056  0.6383130428987261  1.0000
  H   H17       1.0  0.0448488625403788  0.36603060611815935  0.22185766764373135  1.0000
  H   H18       1.0  0.9501542227130824  0.1274216825334723  0.7252766931777871  1.0000
  H   H19       1.0  0.049844669821991254  0.6272388579700693  0.7762337513157263  1.0000
  H   H20       1.0  0.9550389933969945  0.8657768004980213  0.27870113886305253  1.0000
  H   H21       1.0  0.9563353405290878  0.6352552779860906  0.7791231247445618  1.0000
  H   H22       1.0  0.048519375558719414  0.874870753958383  0.2748524978530614  1.0000
  H   H23       1.0  0.9513801438917572  0.3751974925496462  0.22578904644218661  1.0000
  H   H24       1.0  0.04363372607493972  0.13702007158999344  0.7212188295183569  1.0000
  H   H25       1.0  0.5448467775724742  0.8659920244494506  0.22184183155478393  1.0000
  H   H26       1.0  0.4501654201725136  0.627464795322371  0.7252701010342578  1.0000
  H   H27       1.0  0.5498504341825052  0.1272201028265388  0.7762456722040246  1.0000
  H   H28       1.0  0.4550401042862156  0.36580313113865615  0.27868436031471183  1.0000
  H   H29       1.0  0.4563493757726591  0.13526564796696658  0.7791241708811716  1.0000
  H   H30       1.0  0.5485177213122256  0.3748468128809766  0.27486910635279155  1.0000
  H   H31       1.0  0.4513787631198436  0.8751646118501288  0.22576152368095828  1.0000
  H   H32       1.0  0.5436251174672063  0.637030966440437  0.7211954835128281  1.0000
  H   H33       1.0  0.1267034376717649  0.6501162421956688  0.98071508410772  1.0000
  H   H34       1.0  0.8664830357621315  0.8255757871403775  0.49278069899818244  1.0000
  H   H35       1.0  0.1336167020819963  0.32499962841791746  0.00774441018344717  1.0000
  H   H36       1.0  0.872838852089343  0.15064601334449354  0.51769010033004  1.0000
  H   H37       1.0  0.8735547729052923  0.34946815203099096  0.017303164170766036  1.0000
  H   H38       1.0  0.13141154633657748  0.1747319237982688  0.5085280516942475  1.0000
  H   H39       1.0  0.8685403279430424  0.6727505626813941  0.9922762388830006  1.0000
  H   H40       1.0  0.12591460182300912  0.8515243248743289  0.48109820606238524  1.0000
  H   H41       1.0  0.626706423415112  0.15011850939464622  0.9807270879085903  1.0000
  H   H42       1.0  0.36649707367461976  0.325571156870515  0.4927879957819688  1.0000
  H   H43       1.0  0.6336117198991139  0.8250029129498164  0.007739773167257108  1.0000
  H   H44       1.0  0.37283695587060517  0.6506489967701856  0.5176759558371309  1.0000
  H   H45       1.0  0.37357055156470587  0.849499360657264  0.017332043176499175  1.0000
  H   H46       1.0  0.6314085361545765  0.6747099755396124  0.5085428931451305  1.0000
  H   H47       1.0  0.3685444191295563  0.17280573338268768  0.9922935319218067  1.0000
  H   H48       1.0  0.6259177648178769  0.35150905430229185  0.4811256680161617  1.0000
  H   H49       1.0  0.21609125499023007  0.6404620171208899  0.027002723247851523  1.0000
  H   H50       1.0  0.7787604768495526  0.8155913312604209  0.5480666859984292  1.0000
  H   H51       1.0  0.22118417960731251  0.31516311423061627  0.9519683460837053  1.0000
  H   H52       1.0  0.7836490179559561  0.14279094700623185  0.47049657435363146  1.0000
  H   H53       1.0  0.7843981224123844  0.35485153341425163  0.9699768356534232  1.0000
  H   H54       1.0  0.2192923524962617  0.18072341995643273  0.4540479080817225  1.0000
  H   H55       1.0  0.7805763826291134  0.6800195378592366  0.04646473561992655  1.0000
  H   H56       1.0  0.21520122904255332  0.8597110411764152  0.5276724925309565  1.0000
  H   H57       1.0  0.7160859317418727  0.14050722231699145  0.027025265975963848  1.0000
  H   H58       1.0  0.27877087977041265  0.3155841332266365  0.5480664730423229  1.0000
  H   H59       1.0  0.7211747412503622  0.8152159551300201  0.9519244425157511  1.0000
  H   H60       1.0  0.2836513519809237  0.6428375684607185  0.4704558068415074  1.0000
  H   H61       1.0  0.2844007786736596  0.854880832915222  0.9700137707842109  1.0000
  H   H62       1.0  0.7193005581201463  0.680673384020128  0.4540410922117561  1.0000
  H   H63       1.0  0.28056715452386294  0.1800492253264571  0.04651101533820223  1.0000
  H   H64       1.0  0.715198472244838  0.359684471448019  0.5276947789910107  1.0000
  H   H65       1.0  0.24829787353600197  0.8521791790352305  0.13903381903178347  1.0000
  H   H66       1.0  0.753606248490078  0.5956490164471624  0.6623331948963435  1.0000
  H   H67       1.0  0.24618992325372763  0.09526321915023821  0.8373214547450157  1.0000
  H   H68       1.0  0.7519511836129722  0.3568995088310186  0.3593444102873  1.0000
  H   H69       1.0  0.7531673426715096  0.13944292802255034  0.8587815100596363  1.0000
  H   H70       1.0  0.24555554655012635  0.399404178057619  0.33988686879086305  1.0000
  H   H71       1.0  0.7543438879298853  0.9002008052161405  0.16009739028917416  1.0000
  H   H72       1.0  0.24707277338633368  0.6474491403097219  0.639499960112776  1.0000
  H   H73       1.0  0.7482977857983761  0.35224436187403757  0.1390299103635251  1.0000
  H   H74       1.0  0.25361428141566245  0.09565833852245764  0.6623528805918408  1.0000
  H   H75       1.0  0.7461746442589468  0.5953475491155901  0.8372538354718405  1.0000
  H   H76       1.0  0.25195536933069024  0.8569292594210938  0.3593102534700944  1.0000
  H   H77       1.0  0.253164637172674  0.639524502347415  0.8587958002750408  1.0000
  H   H78       1.0  0.7455610053455963  0.8993396305136665  0.33990809054744286  1.0000
  H   H79       1.0  0.25434203894909374  0.4002564987208929  0.1601393190704145  1.0000
  H   H80       1.0  0.7470769807284251  0.14741049409851317  0.6395316045232332  1.0000
  H   H81       1.0  0.19036451804738985  0.07583594784572562  0.20487030559529415  1.0000
  H   H82       1.0  0.8173196176765145  0.38593259914245115  0.7217115532009586  1.0000
  H   H83       1.0  0.18243731624460138  0.8849189539339909  0.7783672764717475  1.0000
  H   H84       1.0  0.810264595898691  0.5815418373937872  0.2955577150052959  1.0000
  H   H85       1.0  0.81197641077904  0.916045944671016  0.7950846222666845  1.0000
  H   H86       1.0  0.18272481355998688  0.6118295563260223  0.2799511182169273  1.0000
  H   H87       1.0  0.8172044251679245  0.1129484954218617  0.21975081228933552  1.0000
  H   H88       1.0  0.1888956595682501  0.4236924234574406  0.7044195583431252  1.0000
  H   H89       1.0  0.6903570662275315  0.575917316022763  0.20483303496653665  1.0000
  H   H90       1.0  0.31731398529461596  0.8859630068676332  0.7217062462821899  1.0000
  H   H91       1.0  0.6824172951628508  0.3849923339878661  0.7783410100333552  1.0000
  H   H92       1.0  0.3102749126807053  0.08160166072677351  0.29555321156203845  1.0000
  H   H93       1.0  0.3119721002792766  0.41612420455353516  0.7951077019836277  1.0000
  H   H94       1.0  0.6827395623624937  0.11179460745802029  0.27997494819110486  1.0000
  H   H95       1.0  0.31721013731463193  0.612956807077253  0.21978265855082615  1.0000
  H   H96       1.0  0.6888856322912983  0.9236600024829157  0.7044369051467595  1.0000
  H   H97       1.0  0.10139960392062945  0.0842911567424036  0.1586499162614991  1.0000
  H   H98       1.0  0.904752164455205  0.3971884730665223  0.6663020608309002  1.0000
  H   H99       1.0  0.09510606611379012  0.895917652060576  0.8344026355473069  1.0000
  H   H100      1.0  0.8991453789484979  0.5879212604809827  0.34271724042656787  1.0000
  H   H101      1.0  0.900799835183012  0.9118316350510905  0.8425432025832434  1.0000
  H   H102      1.0  0.09515197304543926  0.6043971741517846  0.334486181139064  1.0000
  H   H103      1.0  0.9048333619260529  0.1045406314606462  0.165352691289827  1.0000
  H   H104      1.0  0.09996245126272234  0.4166074628227201  0.6578973895019049  1.0000
  H   H105      1.0  0.6013920045274153  0.5843340963554821  0.15863729063363524  1.0000
  H   H106      1.0  0.4047499868954528  0.8971498081753172  0.6662999681756842  1.0000
  H   H107      1.0  0.5951076955085255  0.39590771887409903  0.8344042720197165  1.0000
  H   H108      1.0  0.39915827305858537  0.08794485419985731  0.3427159891340864  1.0000
  H   H109      1.0  0.4007927443846079  0.41189250418218354  0.8425614030320471  1.0000
  H   H110      1.0  0.5951541405027708  0.10436923219105779  0.33451788036004204  1.0000
  H   H111      1.0  0.4048367058669478  0.6045444237669937  0.1653714398626294  1.0000
  H   H112      1.0  0.5999728543487814  0.9165556348973428  0.6579147043530926  1.0000
