data_C14H10
_audit_creation_method 'chmpy python library version 1.0a1'
_cell_length_a 11.940775
_cell_length_b 5.555202
_cell_length_c 15.024851
_cell_angle_alpha 90.0
_cell_angle_beta 112.597019
_cell_angle_gamma 90.0
loop_
_symmetry_equiv_pos_site_id
_symmetry_equiv_pos_as_xyz
                   1 -x,-y,-z
                   2 +x,+y,+z
                   3 1/2-x,1/2+y,-z
                   4 1/2+x,1/2-y,+z
loop_
_atom_site_label
_atom_site_type_symbol
_atom_site_fract_x
_atom_site_fract_y
_atom_site_fract_z
_atom_site_occupancy
C C       0.554431000000       0.008699000000       0.026148000000       1.000000000000
C C       0.681370000000       0.030900000000       0.083319000000       1.000000000000
C C       0.729528000000       0.241463000000       0.137860000000       1.000000000000
C C       0.854991000000       0.267068000000       0.188802000000       1.000000000000
C C       0.934497000000       0.082945000000       0.186904000000       1.000000000000
C C       0.888449000000       0.872735000000       0.133686000000       1.000000000000
C C       0.763091000000       0.846851000000       0.082543000000       1.000000000000
H H       0.667324000000       0.385678000000       0.138102000000       1.000000000000
H H       0.891328000000       0.432562000000       0.228759000000       1.000000000000
H H       1.032120000000       0.101626000000       0.227520000000       1.000000000000
H H       0.950656000000       0.730695000000       0.131215000000       1.000000000000
H H       0.726559000000       0.685975000000       0.039264000000       1.000000000000
C C       0.029505000000       0.972101000000       0.475532000000       1.000000000000
C C       0.100059000000       0.909602000000       0.420471000000       1.000000000000
C C       0.084777000000       0.686228000000       0.371656000000       1.000000000000
C C       0.156181000000       0.626646000000       0.319296000000       1.000000000000
C C       0.245647000000       0.786658000000       0.316200000000       1.000000000000
C C       0.262908000000       1.007930000000       0.364919000000       1.000000000000
C C       0.190214000000       0.069002000000       0.415902000000       1.000000000000
H H       0.018277000000       0.558856000000       0.377604000000       1.000000000000
H H       0.142670000000       0.455085000000       0.280881000000       1.000000000000
H H       0.301967000000       0.737193000000       0.276313000000       1.000000000000
H H       0.332927000000       0.133466000000       0.363707000000       1.000000000000
H H       0.203323000000       0.239984000000       0.454484000000       1.000000000000
#END