data_DPHACT02.b3lyp.6-311G**.dma4.-86.6097.1.1583
_audit_creation_method 'generated by cspy2.0'
_cell_length_a 12.322
_cell_length_b 5.6502
_cell_length_c 15.8522
_cell_angle_alpha 90.0
_cell_angle_beta 112.17450000000001
_cell_angle_gamma 90.0
loop_
_symmetry_equiv_pos_site_id
_symmetry_equiv_pos_as_xyz
1 +x,+y,+z
loop_
_atom_site_label
_atom_site_type_symbol
_atom_site_fract_x
_atom_site_fract_y
_atom_site_fract_z
_atom_site_occupancy
C1 C       0.550439660000       0.017226940000       0.024203880000       1.000000000000
C2 C       0.672777910000       0.037993350000       0.080036230000       1.000000000000
C3 C       0.713392540000       0.238823370000       0.131484020000       1.000000000000
C4 C       0.831359220000       0.264060430000       0.181525100000       1.000000000000
C5 C       0.908726040000       0.091011420000       0.181538750000       1.000000000000
C6 C       0.869313420000      -0.109062520000       0.130971030000       1.000000000000
C7 C       0.751483670000      -0.136985120000       0.080475310000       1.000000000000
C8 C       0.449560340000      -0.017226940000      -0.024203880000       1.000000000000
C9 C       0.327222090000      -0.037993350000      -0.080036230000       1.000000000000
C10 C       0.286607460000      -0.238823370000      -0.131484020000       1.000000000000
C11 C       0.248516330000       0.136985120000      -0.080475310000       1.000000000000
C12 C       0.168640780000      -0.264060430000      -0.181525100000       1.000000000000
C13 C       0.130686580000       0.109062520000      -0.130971030000       1.000000000000
C14 C       0.091273960000      -0.091011420000      -0.181538750000       1.000000000000
C15 C       0.026805750000       0.971085150000       0.477016740000       1.000000000000
C16 C       0.092215410000       0.908219760000       0.422064680000       1.000000000000
C17 C       0.072790130000       0.696632190000       0.374657430000       1.000000000000
C18 C       0.137128130000       0.641149790000       0.322783290000       1.000000000000
C19 C       0.220516730000       0.792759790000       0.318020050000       1.000000000000
C20 C       0.241911770000       1.002083910000       0.365576000000       1.000000000000
C21 C       0.178063260000       1.060347460000       0.417348110000       1.000000000000
C22 C      -0.026805890000       1.028914880000       0.522983210000       1.000000000000
C23 C      -0.092215560000       1.091780260000       0.577935260000       1.000000000000
C24 C      -0.072790270000       1.303367830000       0.625342520000       1.000000000000
C25 C      -0.178063400000       0.939652570000       0.582651850000       1.000000000000
C26 C      -0.137128270000       1.358850230000       0.677216670000       1.000000000000
C27 C      -0.241911910000       0.997916120000       0.634423940000       1.000000000000
C28 C      -0.220516870000       1.207240230000       0.681979900000       1.000000000000
C29 C       0.949560200000       0.517226940000       0.975796050000       1.000000000000
C30 C       0.827221940000       0.537993350000       0.919963720000       1.000000000000
C31 C       0.786607310000       0.738823380000       0.868515920000       1.000000000000
C32 C       0.668640640000       0.764060420000       0.818474850000       1.000000000000
C33 C       0.591273830000       0.591011410000       0.818461200000       1.000000000000
C34 C       0.630686440000       0.390937470000       0.869028910000       1.000000000000
C35 C       0.748516190000       0.363014870000       0.919524640000       1.000000000000
C36 C       1.050439510000       0.482773050000       1.024203840000       1.000000000000
C37 C       1.172777770000       0.462006640000       1.080036170000       1.000000000000
C38 C       1.213392400000       0.261176620000       1.131483970000       1.000000000000
C39 C       1.251483540000       0.636985120000       1.080475260000       1.000000000000
C40 C       1.331359090000       0.235939580000       1.181525040000       1.000000000000
C41 C       1.369313280000       0.609062520000       1.130970990000       1.000000000000
C42 C       1.408725900000       0.408988580000       1.181538690000       1.000000000000
C43 C       0.473194120000       0.471085150000       0.522983200000       1.000000000000
C44 C       0.407784440000       0.408219760000       0.577935250000       1.000000000000
C45 C       0.427209730000       0.196632200000       0.625342510000       1.000000000000
C46 C       0.362871730000       0.141149810000       0.677216650000       1.000000000000
C47 C       0.279483120000       0.292759810000       0.681979900000       1.000000000000
C48 C       0.258088100000       0.502083910000       0.634423940000       1.000000000000
C49 C       0.321936600000       0.560347460000       0.582651840000       1.000000000000
C50 C       0.526805750000       0.528914880000       0.477016730000       1.000000000000
C51 C       0.592215420000       0.591780260000       0.422064680000       1.000000000000
C52 C       0.572790140000       0.803367830000       0.374657430000       1.000000000000
C53 C       0.678063260000       0.439652570000       0.417348100000       1.000000000000
C54 C       0.637128140000       0.858850230000       0.322783290000       1.000000000000
C55 C       0.741911760000       0.497916110000       0.365575990000       1.000000000000
C56 C       0.720516740000       0.707240220000       0.318020030000       1.000000000000
H1 H       0.652381430000       0.377139160000       0.132561190000       1.000000000000
H2 H       0.863426570000       0.423908810000       0.221598200000       1.000000000000
H3 H       1.001817720000       0.112642860000       0.221875720000       1.000000000000
H4 H       0.931025800000      -0.246591160000       0.130552290000       1.000000000000
H5 H       0.720133020000      -0.297559880000       0.040710310000       1.000000000000
H6 H       0.347618570000      -0.377139160000      -0.132561190000       1.000000000000
H7 H       0.279866980000       0.297559880000      -0.040710310000       1.000000000000
H8 H       0.136573430000      -0.423908810000      -0.221598200000       1.000000000000
H9 H       0.068974200000       0.246591160000      -0.130552290000       1.000000000000
H10 H      -0.001818060000      -0.112642850000      -0.221875730000       1.000000000000
H11 H       0.006577010000       0.573977830000       0.378393480000       1.000000000000
H12 H       0.121222380000       0.474890580000       0.285307360000       1.000000000000
H13 H       0.270441470000       0.747886190000       0.276345850000       1.000000000000
H14 H       0.309441830000       1.121814630000       0.362252930000       1.000000000000
H15 H       0.194946740000       1.226657040000       0.454824830000       1.000000000000
H16 H      -0.006577160000       1.426022200000       0.621606460000       1.000000000000
H17 H      -0.194946880000       0.773342990000       0.545175130000       1.000000000000
H18 H      -0.121222520000       1.525109440000       0.714692590000       1.000000000000
H19 H      -0.309441970000       0.878185410000       0.637747020000       1.000000000000
H20 H      -0.270441610000       1.252113840000       0.723654110000       1.000000000000
H21 H       0.847618430000       0.877139170000       0.867438750000       1.000000000000
H22 H       0.636573300000       0.923908830000       0.778401750000       1.000000000000
H23 H       0.498182150000       0.612642860000       0.778124210000       1.000000000000
H24 H       0.568974060000       0.253408840000       0.869447630000       1.000000000000
H25 H       0.779866840000       0.202440110000       0.959289640000       1.000000000000
H26 H       1.152381300000       0.122860840000       1.132561130000       1.000000000000
H27 H       1.220132880000       0.797559880000       1.040710250000       1.000000000000
H28 H       1.363426430000       0.076091180000       1.221598140000       1.000000000000
H29 H       1.431025650000       0.746591150000       1.130552260000       1.000000000000
H30 H       1.501817920000       0.387357140000       1.221875670000       1.000000000000
H31 H       0.493422840000       0.073977830000       0.621606450000       1.000000000000
H32 H       0.378777470000      -0.025109420000       0.714692580000       1.000000000000
H33 H       0.229558390000       0.247886190000       0.723654100000       1.000000000000
H34 H       0.190558030000       0.621814640000       0.637747020000       1.000000000000
H35 H       0.305053130000       0.726657050000       0.545175110000       1.000000000000
H36 H       0.506577020000       0.926022210000       0.378393480000       1.000000000000
H37 H       0.694946730000       0.273342990000       0.454824820000       1.000000000000
H38 H       0.621222400000       1.025109440000       0.285307350000       1.000000000000
H39 H       0.809441840000       0.378185400000       0.362252920000       1.000000000000
H40 H       0.770441460000       0.752113840000       0.276345830000       1.000000000000
#END