data_image0
_chemical_formula_structural       C28H20C28H20
_chemical_formula_sum              "C56 H40"
_cell_length_a       13.281080934789474
_cell_length_b       5.907547371784725
_cell_length_c       15.809074221634182
_cell_angle_alpha    90.19536225942693
_cell_angle_beta     113.2535481522464
_cell_angle_gamma    89.7829468068165

_space_group_name_H-M_alt    "P 1"
_space_group_IT_number       1

loop_
  _space_group_symop_operation_xyz
  'x, y, z'

loop_
  _atom_site_type_symbol
  _atom_site_label
  _atom_site_symmetry_multiplicity
  _atom_site_fract_x
  _atom_site_fract_y
  _atom_site_fract_z
  _atom_site_occupancy
  C   C1        1.0  0.5490182933684578  0.004522331306373651  0.023369979659562525  1.0000
  C   C2        1.0  0.9512434325153282  0.504583622224035  0.976688810391438  1.0000
  C   C3        1.0  0.45065359368696417  0.9966079083141951  0.9763529333297597  1.0000
  C   C4        1.0  0.0495805309848958  0.49718231591565926  0.023910768398797293  1.0000
  C   C5        1.0  0.6629528503084511  0.014768893308787279  0.07712974174350286  1.0000
  C   C6        1.0  0.8373210229052201  0.5143645179208057  0.9229354339004073  1.0000
  C   C7        1.0  0.3367603241666684  0.9853035869247453  0.9226278018056244  1.0000
  C   C8        1.0  0.16349522281169698  0.4862383691240862  0.07766737783619353  1.0000
  C   C9        1.0  0.708369995909876  0.202461574245412  0.13466685406039755  1.0000
  C   C10       1.0  0.7914045012220352  0.7009803488660353  0.8650888824034657  1.0000
  C   C11       1.0  0.29165361980010784  0.7969733043309581  0.8654276492954398  1.0000
  C   C12       1.0  0.20904126480837373  0.29905643559714123  0.135304539134123  1.0000
  C   C13       1.0  0.8207586571085997  0.21251188615852654  0.1862692830182023  1.0000
  C   C14       1.0  0.6789785516566178  0.710860979696238  0.8135198569991614  1.0000
  C   C15       1.0  0.17926323306440978  0.7858061548930402  0.8139132695344252  1.0000
  C   C16       1.0  0.32143316774991654  0.2884572509298513  0.18690352392517817  1.0000
  C   C17       1.0  0.8892769733750557  0.03753422790083794  0.18182894618605736  1.0000
  C   C18       1.0  0.6108852613645142  0.5365511660495113  0.8182250536330025  1.0000
  C   C19       1.0  0.11043071968054725  0.9605063131179553  0.8180013431374172  1.0000
  C   C20       1.0  0.3898468055491578  0.46231683416702607  0.18237930694594684  1.0000
  C   C21       1.0  0.8449134481750787  0.8511842309748824  0.12504548337962693  1.0000
  C   C22       1.0  0.6557581416463453  0.3508756875613975  0.8750977550282152  1.0000
  C   C23       1.0  0.15448282262195437  0.14773850962531407  0.8743289275764881  1.0000
  C   C24       1.0  0.3453710708168286  0.6481102007786805  0.12544933976163025  1.0000
  C   C25       1.0  0.7326669314022877  0.8387706145106888  0.07281787214711383  1.0000
  C   C26       1.0  0.7680456581066532  0.338778115727238  0.9273021604411543  1.0000
  C   C27       1.0  0.26672963314090314  0.16112752397949623  0.9264847938110197  1.0000
  C   C28       1.0  0.23311042619067  0.6611164909542043  0.07327573970533673  1.0000
  H   H1        1.0  0.6547040459629879  0.3403206460591937  0.13792800873820857  1.0000
  H   H2        1.0  0.8448257295539169  0.8382295334880604  0.861653880521839  1.0000
  H   H3        1.0  0.34559873591828794  0.6593061150298664  0.8624860592715063  1.0000
  H   H4        1.0  0.15548729180095502  0.16198200142675667  0.13859484220135543  1.0000
  H   H5        1.0  0.8550031987503638  0.3602677133639534  0.2299479279454497  1.0000
  H   H6        1.0  0.6444443510082363  0.8578267885071413  0.7695552560800785  1.0000
  H   H7        1.0  0.14534545373448138  0.6373063995969049  0.7706015307749589  1.0000
  H   H8        1.0  0.3557487196194346  0.14097950685115335  0.2306017833796951  1.0000
  H   H9        1.0  0.9776325049518139  0.04575147599603335  0.22289740473394376  1.0000
  H   H10       1.0  0.5225039218481016  0.5445744651083817  0.777181197084387  1.0000
  H   H11       1.0  0.022081973894368792  0.951445703694631  0.7770222487380698  1.0000
  H   H12       1.0  0.47819628803049663  0.4536533715321869  0.2234862259245077  1.0000
  H   H13       1.0  0.8980109756707632  0.7141809549858766  0.12019039961039543  1.0000
  H   H14       1.0  0.6030531827390838  0.2141804439266143  0.8800529815565138  1.0000
  H   H15       1.0  0.10115758833010027  0.2845754438184185  0.8789220055842882  1.0000
  H   H16       1.0  0.39841923732899703  0.7840614635631291  0.12045483542154893  1.0000
  H   H17       1.0  0.6980672966156789  0.6936853142671539  0.027407374501438635  1.0000
  H   H18       1.0  0.8031102440881267  0.19417235071580757  0.9727485429807453  1.0000
  H   H19       1.0  0.30122660626850994  0.30682286169546336  0.9715905566485886  1.0000
  H   H20       1.0  0.19836836605869357  0.8056673180810556  0.027737995830699056  1.0000
  C   C29       1.0  0.027854573522905875  0.9799913845109092  0.4779888012163209  1.0000
  C   C30       1.0  0.4722537702559344  0.48141234080471074  0.522192422967308  1.0000
  C   C31       1.0  0.9721106017820564  0.021747174756165596  0.5219228419354806  1.0000
  C   C32       1.0  0.5277182496567795  0.5231621994879685  0.4781601470962361  1.0000
  C   C33       1.0  0.09173429180443562  0.9327323818398815  0.4265671209163978  1.0000
  C   C34       1.0  0.4087298338459873  0.43303269675443534  0.5736531497629136  1.0000
  C   C35       1.0  0.9080619858081832  0.06806458427747943  0.573303363832458  1.0000
  C   C36       1.0  0.5911155385047425  0.5701328388260931  0.4264841981389303  1.0000
  C   C37       1.0  0.07986637827410331  0.7259048955450739  0.3790147022228481  1.0000
  C   C38       1.0  0.4215858300136885  0.22595539520633207  0.6207611663400393  1.0000
  C   C39       1.0  0.9200110931853965  0.27396777481764756  0.621489077100283  1.0000
  C   C40       1.0  0.5785236177527964  0.776705740918277  0.3790837008929707  1.0000
  C   C41       1.0  0.14287230647676832  0.6805655524594677  0.32848391438643937  1.0000
  C   C42       1.0  0.35922953650638967  0.18001710423005066  0.6716229542287608  1.0000
  C   C43       1.0  0.8568820153578696  0.31797417946518364  0.6720346750054385  1.0000
  C   C44       1.0  0.6407791113214468  0.8213028533259289  0.32801007083916894  1.0000
  C   C45       1.0  0.21844294431125338  0.8391783688978486  0.3245558926256578  1.0000
  C   C46       1.0  0.2832371672464026  0.3380737254038399  0.6761759916559367  1.0000
  C   C47       1.0  0.7810003627338372  0.1591282209640061  0.6751621387487489  1.0000
  C   C48       1.0  0.7163941383255222  0.6622673171279848  0.32344673970780263  1.0000
  C   C49       1.0  0.23108889580374367  0.044035531660168825  0.3717307602924325  1.0000
  C   C50       1.0  0.2694871688761943  0.5430107797167295  0.6293262814034648  1.0000
  C   C51       1.0  0.7682591425165873  0.9552492792013056  0.6273334572342499  1.0000
  C   C52       1.0  0.729826939955914  0.4577578465704699  0.37054406829775094  1.0000
  C   C53       1.0  0.16846052283274238  0.09167589837960195  0.4224792498432345  1.0000
  C   C54       1.0  0.33160764913866303  0.5914017554615267  0.5783868196799299  1.0000
  C   C55       1.0  0.8311320752684656  0.9087745631156006  0.5766793245702673  1.0000
  C   C56       1.0  0.6679277283647492  0.4108770978793941  0.4218029731437885  1.0000
  H   H21       1.0  0.020932094722239968  0.6015340118674448  0.38281248604507084  1.0000
  H   H22       1.0  0.48088111917852383  0.10204503450613196  0.6164891273346754  1.0000
  H   H23       1.0  0.9792471816706269  0.39852103527469773  0.6183506176812567  1.0000
  H   H24       1.0  0.5195907370429986  0.9015471022623376  0.38333595017899735  1.0000
  H   H25       1.0  0.1333308263201022  0.5191008553818528  0.292087970178769  1.0000
  H   H26       1.0  0.36974668954265194  0.018560027221433906  0.7078253477224744  1.0000
  H   H27       1.0  0.86666416376462  0.4785537335303583  0.7090548963644098  1.0000
  H   H28       1.0  0.6304757529369688  0.982426036171126  0.29160350828444054  1.0000
  H   H29       1.0  0.2680504266099384  0.8008328210540514  0.28495181809009373  1.0000
  H   H30       1.0  0.23421638121883173  0.2992052160369974  0.7160786587895079  1.0000
  H   H31       1.0  0.7313057788406473  0.1964885088904174  0.7147816990795754  1.0000
  H   H32       1.0  0.765420766837705  0.6999378798359315  0.2834267011745467  1.0000
  H   H33       1.0  0.2907476810738841  0.1692236297432373  0.3699301402034054  1.0000
  H   H34       1.0  0.20956024763240663  0.6677918620170261  0.6317437891734086  1.0000
  H   H35       1.0  0.7084232954322475  0.8298975383925536  0.6286259308129714  1.0000
  H   H36       1.0  0.7894991775241738  0.3322111490115815  0.36822756341464113  1.0000
  H   H37       1.0  0.17924323751715684  0.2514488046728035  0.4603350497486448  1.0000
  H   H38       1.0  0.3201969436068795  0.7513465244893568  0.5408692962665165  1.0000
  H   H39       1.0  0.8205497814059722  0.7496339451514908  0.5384272679338683  1.0000
  H   H40       1.0  0.6792941204207219  0.25132341073642195  0.4595584886090437  1.0000
