# CIF file generated from CASTEP cell file
# https://gist.github.com/blake-armstrong/93facdde07a6e0a1ddb51857dd48e3f1
# Structure converted from CASTEP

data_structure

_cell_length_a    12.657036404371246
_cell_length_b    5.693679772049380
_cell_length_c    15.191096572304524
_cell_angle_alpha 90.000000000000000
_cell_angle_beta  113.887560549253806
_cell_angle_gamma 90.000000000000000

_symmetry_space_group_name_H-M 'P 1'
_symmetry_Int_Tables_number 1

loop_
_atom_site_label
_atom_site_type_symbol
_atom_site_fract_x
_atom_site_fract_y
_atom_site_fract_z
H1       H     0.659219443078797    0.373606378667474    0.138268366167417
H2       H     0.871000036146216    0.419387671002949    0.227753212383461
H3       H     1.004597312446606    0.103673247704383    0.222198463812460
H4       H     0.925058301614211   -0.255695571217972    0.125018115070532
H5       H     0.713157400561871   -0.301740110566978    0.034900383047341
H6       H     0.340780556921204   -0.373606378667474   -0.138268366167417
H7       H     0.286842599438130    0.301740110566978   -0.034900383047341
H8       H     0.128999963853784   -0.419387671002949   -0.227753212383461
H9       H     0.074941698385789    0.255695571217972   -0.125018115070532
H10      H    -0.004597312446606   -0.103673247704383   -0.222198463812460
H11      H     0.007742385328264   -0.430327972516267    0.377276642791918
H12      H     0.121916921712779   -0.535975300416243    0.282576214006518
H13      H     0.273120377048493   -0.267324299006019    0.277604276311425
H14      H     0.308910292658105    0.115976563443996    0.366411497589089
H15      H     0.192980845993475    0.223866584762886    0.457920141418758
H16      H    -0.007742385328264    0.430327972516267    0.622723357208083
H17      H    -0.192980845993475   -0.223866584762886    0.542079858581242
H18      H    -0.121916921712780    0.535975300416243    0.717423785993482
H19      H    -0.308910292658105   -0.115976563443996    0.633588502410912
H20      H    -0.273120377048493    0.267324299006019    0.722395723688575
H21      H    -0.159219443078797    0.873606378667474   -0.138268366167417
H22      H    -0.371000036146216    0.919387671002948   -0.227753212383461
H23      H    -0.504597312446605    0.603673247704382   -0.222198463812460
H24      H    -0.425058301614210    0.244304428782027   -0.125018115070532
H25      H    -0.213157400561871    0.198259889433022   -0.034900383047341
H26      H     0.159219443078797    0.126393621332526    0.138268366167417
H27      H     0.213157400561871    0.801740110566978    0.034900383047341
H28      H     0.371000036146216    0.080612328997051    0.227753212383461
H29      H     0.425058301614210    0.755695571217972    0.125018115070532
H30      H     0.504597312446605    0.396326752295618    0.222198463812460
H31      H     0.492257614671736    0.069672027483734    0.622723357208083
H32      H     0.378083078287219   -0.035975300416243    0.717423785993482
H33      H     0.226879622951507    0.232675700993981    0.722395723688575
H34      H     0.191089707341895    0.615976563443996    0.633588502410912
H35      H     0.307019154006525    0.723866584762886    0.542079858581242
H36      H     0.507742385328264    0.930327972516265    0.377276642791918
H37      H     0.692980845993475    0.276133415237114    0.457920141418758
H38      H     0.621916921712779    1.035975300416245    0.282576214006518
H39      H     0.808910292658106    0.384023436556005    0.366411497589089
H40      H     0.773120377048495    0.767324299006019    0.277604276311425
C1       C     0.551447608691965    0.009392350135377    0.025287167318878
C2       C     0.671791324481771    0.032219723014032    0.080688382698581
C3       C     0.717615788306398    0.235330410039557    0.136327839892990
C4       C     0.836574073557331    0.259938160862225    0.186598584194677
C5       C     0.911649093554333    0.084033342580187    0.182855947100885
C6       C     0.866963296528392   -0.118787109395693    0.128661388446267
C7       C     0.748184713148795   -0.145472869304413    0.078020162488766
C8       C     0.448552391308035   -0.009392350135377   -0.025287167318878
C9       C     0.328208675518229   -0.032219723014032   -0.080688382698581
C10      C     0.282384211693602   -0.235330410039557   -0.136327839892990
C11      C     0.251815286851205    0.145472869304413   -0.078020162488766
C12      C     0.163425926442669   -0.259938160862225   -0.186598584194677
C13      C     0.133036703471608    0.118787109395693   -0.128661388446267
C14      C     0.088350906445668   -0.084033342580187   -0.182855947100885
C15      C     0.027000645418743   -0.030104011264873    0.476541622009188
C16      C     0.091606142475660   -0.094432897425617    0.422899253652877
C17      C     0.072567702355301   -0.310297190761217    0.373222928827659
C18      C     0.137099481308139   -0.369428742573971    0.320874050673681
C19      C     0.222431331315227   -0.217549753058600    0.317941526638742
C20      C     0.242467303539231   -0.004002566685177    0.367586511287111
C21      C     0.177600333725000    0.058077475921364    0.419293657136562
C22      C    -0.027000645418743    0.030104011264873    0.523458377990812
C23      C    -0.091606142475660    0.094432897425617    0.577100746347123
C24      C    -0.072567702355301    0.310297190761217    0.626777071172340
C25      C    -0.177600333725000   -0.058077475921364    0.580706342863438
C26      C    -0.137099481308139    0.369428742573971    0.679125949326318
C27      C    -0.242467303539231    0.004002566685177    0.632413488712890
C28      C    -0.222431331315227    0.217549753058600    0.682058473361258
C29      C    -0.051447608691964    0.509392350135378   -0.025287167318878
C30      C    -0.171791324481772    0.532219723014032   -0.080688382698581
C31      C    -0.217615788306398    0.735330410039557   -0.136327839892990
C32      C    -0.336574073557331    0.759938160862224   -0.186598584194677
C33      C    -0.411649093554332    0.584033342580187   -0.182855947100885
C34      C    -0.366963296528391    0.381212890604307   -0.128661388446267
C35      C    -0.248184713148796    0.354527130695587   -0.078020162488766
C36      C     0.051447608691964    0.490607649864623    0.025287167318878
C37      C     0.171791324481772    0.467780276985968    0.080688382698581
C38      C     0.217615788306398    0.264669589960443    0.136327839892990
C39      C     0.248184713148796    0.645472869304413    0.078020162488766
C40      C     0.336574073557331    0.240061839137775    0.186598584194677
C41      C     0.366963296528391    0.618787109395693    0.128661388446267
C42      C     0.411649093554332    0.415966657419813    0.182855947100885
C43      C     0.472999354581257    0.469895988735127    0.523458377990812
C44      C     0.408393857524339    0.405567102574383    0.577100746347123
C45      C     0.427432297644699    0.189702809238783    0.626777071172340
C46      C     0.362900518691862    0.130571257426029    0.679125949326318
C47      C     0.277568668684773    0.282450246941400    0.682058473361258
C48      C     0.257532696460769    0.495997433314823    0.632413488712890
C49      C     0.322399666275000    0.558077475921364    0.580706342863438
C50      C     0.527000645418742    0.530104011264872    0.476541622009188
C51      C     0.591606142475660    0.594432897425616    0.422899253652877
C52      C     0.572567702355301    0.810297190761217    0.373222928827659
C53      C     0.677600333725001    0.441922524078635    0.419293657136562
C54      C     0.637099481308138    0.869428742573971    0.320874050673681
C55      C     0.742467303539230    0.504002566685178    0.367586511287111
C56      C     0.722431331315227    0.717549753058600    0.317941526638742
