data_image0
_chemical_formula_structural       C28H20C28H20
_chemical_formula_sum              "C56 H40"
_cell_length_a       12.778
_cell_length_b       5.764
_cell_length_c       15.508
_cell_angle_alpha    90.0
_cell_angle_beta     113.39000000000001
_cell_angle_gamma    90.0

_space_group_name_H-M_alt    "P 1"
_space_group_IT_number       1

loop_
  _space_group_symop_operation_xyz
  'x, y, z'

loop_
  _atom_site_type_symbol
  _atom_site_label
  _atom_site_symmetry_multiplicity
  _atom_site_fract_x
  _atom_site_fract_y
  _atom_site_fract_z
  _atom_site_occupancy
  C   C1        1.0  0.5506691207189074  0.009808114634608095  0.024772822718793452  1.0000
  C   C2        1.0  0.9493306509004846  0.5098077572296397  0.9752271034941519  1.0000
  C   C3        1.0  0.44932398740484897  0.9901326782884978  0.9751912005637842  1.0000
  C   C4        1.0  0.050676205912075556  0.4901330498885913  0.024808836434498965  1.0000
  C   C5        1.0  0.6690922754364161  0.033138181839161444  0.07980397312363778  1.0000
  C   C6        1.0  0.8309077559983951  0.5331382973663294  0.9201959643695231  1.0000
  C   C7        1.0  0.3309011881695487  0.966787129514916  0.9201647900700682  1.0000
  C   C8        1.0  0.16909877367915804  0.46678676375703193  0.07983525379199437  1.0000
  C   C9        1.0  0.7129381721243356  0.23347444662060868  0.13476767992933103  1.0000
  C   C10       1.0  0.787061869842565  0.7334749225841245  0.8652323972201138  1.0000
  C   C11       1.0  0.2870523175093091  0.766462705920961  0.8651853179432539  1.0000
  C   C12       1.0  0.21294768608750295  0.26646247431065606  0.13481458588423872  1.0000
  C   C13       1.0  0.8299860291063743  0.2577361973323324  0.18555225888292154  1.0000
  C   C14       1.0  0.6700138562294378  0.7577366926306185  0.8144476867390611  1.0000
  C   C15       1.0  0.17000361197968486  0.7421955091178039  0.8144207896021517  1.0000
  C   C16       1.0  0.32999648119588837  0.24219504434356576  0.18557925557023652  1.0000
  C   C17       1.0  0.9052077054582721  0.08417939136324605  0.18309388874151405  1.0000
  C   C18       1.0  0.5947922646557512  0.5841796743626346  0.8169061842292948  1.0000
  C   C19       1.0  0.09478578456719647  0.9157252599012373  0.8169162741775984  1.0000
  C   C20       1.0  0.4052141488326683  0.41572514151341844  0.1830836079026106  1.0000
  C   C21       1.0  0.8625739372464769  0.8844624965516397  0.12934537323968678  1.0000
  C   C22       1.0  0.637426117967771  0.3844628309317888  0.8706546647335788  1.0000
  C   C23       1.0  0.13742022991799302  0.11543092496563392  0.8706675016027107  1.0000
  C   C24       1.0  0.3625797800602875  0.6154304278650402  0.12933251597177767  1.0000
  C   C25       1.0  0.7457279710672552  0.8582721947637102  0.07813378324911217  1.0000
  C   C26       1.0  0.7542721260690588  0.3582726249512031  0.9218663184792014  1.0000
  C   C27       1.0  0.2542716222778862  0.14163642298349655  0.9218600209314318  1.0000
  C   C28       1.0  0.24572826508407108  0.6416361508375322  0.07813984614522548  1.0000
  H   H1        1.0  0.6544700812762082  0.3699626497121986  0.13599797278240414  1.0000
  H   H2        1.0  0.8455297727399467  0.8699630595974294  0.8640020375603279  1.0000
  H   H3        1.0  0.34551675075235416  0.6299841778109346  0.8639417646075658  1.0000
  H   H4        1.0  0.1544833186362659  0.1299836843600399  0.13605820768362595  1.0000
  H   H5        1.0  0.8628694962246655  0.4151447728079881  0.2263208881401793  1.0000
  H   H6        1.0  0.6371303660860709  0.9151450753414787  0.7736790731637666  1.0000
  H   H7        1.0  0.13711940957820237  0.584793180162064  0.7736506927862565  1.0000
  H   H8        1.0  0.3628806939929231  0.08479287200091729  0.22634934639445142  1.0000
  H   H9        1.0  0.9967296955731281  0.10337802116159196  0.2230735950329583  1.0000
  H   H10       1.0  0.5032702839179455  0.6033781007729451  0.7769263734353719  1.0000
  H   H11       1.0  0.003259175501549077  0.8964754897593092  0.7769687626486231  1.0000
  H   H12       1.0  0.4967408407358836  0.39647538828180473  0.22303128569738456  1.0000
  H   H13       1.0  0.920783803352298  0.7491262933561947  0.12659438961572647  1.0000
  H   H14       1.0  0.5792163337160526  0.24912653984255256  0.8734056596409866  1.0000
  H   H15       1.0  0.07920612053623985  0.2507399149958448  0.8734342032480629  1.0000
  H   H16       1.0  0.4207937463684659  0.7507396495303726  0.12656574233898368  1.0000
  H   H17       1.0  0.7124900692024401  0.7039535231995618  0.035433526687180195  1.0000
  H   H18       1.0  0.7875100411702003  0.20395392790971414  0.964566547744533  1.0000
  H   H19       1.0  0.2875115117231041  0.2959454291249275  0.9645680586937453  1.0000
  H   H20       1.0  0.21248840113482328  0.7959449396402517  0.03543187790913346  1.0000
  C   C29       1.0  0.026580505261515164  0.9697199439212335  0.47675558813350327  1.0000
  C   C30       1.0  0.4734194078048632  0.46972008528549086  0.5232444377103237  1.0000
  C   C31       1.0  0.9735302787343053  0.03037525879961479  0.5232618463916682  1.0000
  C   C32       1.0  0.5264697812585873  0.5303751402510671  0.476738124896386  1.0000
  C   C33       1.0  0.08968938542419777  0.9042555737994044  0.42331928433887  1.0000
  C   C34       1.0  0.41031054276101275  0.4042555667135577  0.5766807388747891  1.0000
  C   C35       1.0  0.9103868705484397  0.09585437982323353  0.5766687637616573  1.0000
  C   C36       1.0  0.5896132170321482  0.5958542438999287  0.42333121024055775  1.0000
  C   C37       1.0  0.06940729158688182  0.6910688203634968  0.374496166927652  1.0000
  C   C38       1.0  0.43059270033546704  0.19106874423695402  0.6255038541102078  1.0000
  C   C39       1.0  0.9306035692689747  0.30910351293998356  0.6254503933123258  1.0000
  C   C40       1.0  0.5693964661563853  0.8091038234411311  0.3745495444129434  1.0000
  C   C41       1.0  0.1322696409576027  0.6305906307963468  0.32220566927408417  1.0000
  C   C42       1.0  0.36773030162504067  0.13059062213437225  0.6777943575603839  1.0000
  C   C43       1.0  0.8677221818119373  0.36955198467306755  0.6777299231947178  1.0000
  C   C44       1.0  0.6322778880900917  0.8695517806515739  0.32227010144158713  1.0000
  C   C45       1.0  0.21690881310593366  0.7787893137715299  0.3181416176858575  1.0000
  C   C46       1.0  0.2830912161874953  0.278789314117877  0.6818584051886608  1.0000
  C   C47       1.0  0.7831239455234753  0.2212678386607591  0.6818146283010901  1.0000
  C   C48       1.0  0.7168759903930322  0.7212680613062731  0.3181853199951657  1.0000
  C   C49       1.0  0.2381311576306169  0.9896522696991552  0.3668068388246479  1.0000
  C   C50       1.0  0.2618687703667871  0.48965229244776526  0.6331932007863629  1.0000
  C   C51       1.0  0.761955868201614  0.010371487725798864  0.6331758972586463  1.0000
  C   C52       1.0  0.7380441968209974  0.5103713591985981  0.3668241074506277  1.0000
  C   C53       1.0  0.1752224980547199  0.05275441385098135  0.4187345090033847  1.0000
  C   C54       1.0  0.3247774650564166  0.5527545173589813  0.5812654502633677  1.0000
  C   C55       1.0  0.8248815956599808  0.9472897605283572  0.5812611720242664  1.0000
  C   C56       1.0  0.6751184350574208  0.44728983698309094  0.4187388321237146  1.0000
  H   H21       1.0  0.004754786827234659  0.5739890370418241  0.37903219333116284  1.0000
  H   H22       1.0  0.49524521436328034  0.07398904679246265  0.62096779365301  1.0000
  H   H23       1.0  0.9952114196728551  0.42626539789420026  0.6208869036487542  1.0000
  H   H24       1.0  0.504788580543096  0.9262653986954122  0.3791131169003522  1.0000
  H   H25       1.0  0.11614638607258873  0.4657429869782461  0.2847063165699771  1.0000
  H   H26       1.0  0.38385363102067505  0.9657430409246625  0.7152936671706542  1.0000
  H   H27       1.0  0.8837859925389735  0.534430859925399  0.7152036302653286  1.0000
  H   H28       1.0  0.6162140109405936  0.03443087919543647  0.284796375372678  1.0000
  H   H29       1.0  0.26629562501994536  0.7281988429275811  0.27773675309245427  1.0000
  H   H30       1.0  0.23370440992772437  0.22819888162953733  0.7222632553025291  1.0000
  H   H31       1.0  0.7337315658972458  0.2718039116400203  0.7222205951525981  1.0000
  H   H32       1.0  0.7662684394918157  0.7718038702809401  0.27777941515141696  1.0000
  H   H33       1.0  0.30413969726209217  0.10688520143870849  0.36477524657527294  1.0000
  H   H34       1.0  0.19586037331703587  0.6068851277236421  0.6352247560514562  1.0000
  H   H35       1.0  0.6959771227854095  0.893098359590275  0.635235979140494  1.0000
  H   H36       1.0  0.8040228061358843  0.3930984894458109  0.36476404162369197  1.0000
  H   H37       1.0  0.19189684117959938  0.21654829778133022  0.4568291913087669  1.0000
  H   H38       1.0  0.3081031587524235  0.7165482709309902  0.543170842204058  1.0000
  H   H39       1.0  0.8082390116127621  0.7834466066067527  0.54319663797116  1.0000
  H   H40       1.0  0.6917609990684701  0.28344654696218063  0.4568033487808406  1.0000
