data_cif

_audit_creation_method             'generated by GULP'

_symmetry_space_group_name_H-M     'P 1 21/A 1      '
_symmetry_Int_Tables_number        14
_symmetry_cell_setting             Monoclinic  

_cell_length_a                      12.446921
_cell_length_b                       5.832669
_cell_length_c                      14.419513
_cell_angle_alpha                   90.000000
_cell_angle_beta                   114.536537
_cell_angle_gamma                   90.000000

loop_
_atom_site_label
_atom_site_fract_x
_atom_site_fract_y
_atom_site_fract_z
_atom_site_occupancy
  C1          0.54916      0.01636      0.04435  1.0000
  C2          0.67403      0.05537      0.08847  1.0000
  C2          0.71970      0.26716      0.13411  1.0000
  C2          0.84210      0.30575      0.17640  1.0000
  C2          0.91894      0.13262      0.17375  1.0000
  C2          0.87349      0.92128      0.12807  1.0000
  C2          0.75107      0.88285      0.08521  1.0000
  H3          0.66033      0.40209      0.13583  1.0000
  H3          0.87730      0.47017      0.21052  1.0000
  H3          0.01360      0.16219      0.20654  1.0000
  H3          0.93312      0.78815      0.12544  1.0000
  H3          0.71588      0.72004      0.04870  1.0000
  C1          0.01174      0.99384      0.45778  1.0000
  C2          0.08987      0.92712      0.41248  1.0000
  C2          0.07976      0.70926      0.36813  1.0000
  C2          0.15585      0.64561      0.32289  1.0000
  C2          0.24351      0.79774      0.32372  1.0000
  C2          0.25470      0.01471      0.36906  1.0000
  C2          0.17745      0.07930      0.41293  1.0000
  H3          0.01379      0.58942      0.36973  1.0000
  H3          0.14804      0.47777      0.28809  1.0000
  H3          0.30332      0.74540      0.29019  1.0000
  H3          0.32314      0.13262      0.37077  1.0000
  H3          0.18624      0.24656      0.44838  1.0000
