# CIF file generated from CASTEP cell file
# https://gist.github.com/blake-armstrong/93facdde07a6e0a1ddb51857dd48e3f1
# Structure converted from CASTEP

data_structure

_cell_length_a    7.525270907755314
_cell_length_b    10.935020504596601
_cell_length_c    15.410842779154214
_cell_angle_alpha 90.000000000000000
_cell_angle_beta  116.575109749800774
_cell_angle_gamma 90.000000000000000

_symmetry_space_group_name_H-M 'P 1'
_symmetry_Int_Tables_number 1

loop_
_atom_site_label
_atom_site_type_symbol
_atom_site_fract_x
_atom_site_fract_y
_atom_site_fract_z
H1       H     0.022779703839735    0.891141379328316    0.111414135448373
H2       H     0.109403565135737    0.998334019583320    0.266892727660306
H3       H     0.462433242849310    1.001230902036547    0.394973027291054
H4       H     0.721177175517492    0.895867282729472    0.365561826695210
H5       H     0.814246345994935    0.755928474231170    0.275606499795183
H6       H     0.838478275009780    0.728264365711594    0.129807120729150
H7       H     0.783042422331447    0.827752717513429   -0.019029422389060
H8       H     0.554187960458717    0.906073657219894   -0.181817737601055
H9       H     0.195015963069525    0.924875299727867   -0.229868911156662
H10      H     0.064506858486087    0.867165213526398   -0.111225826383042
H11      H     0.061171180318203    0.517234373263662   -0.057322154480192
H12      H     0.207603152829794    0.627993274289282   -0.079039473031949
H13      H     0.977220235702998    0.391141379328316    0.388585889557061
H14      H     0.890596374406994    0.498334019583320    0.233107297345127
H15      H     0.537566696693422    0.501230902036545    0.105026997714381
H16      H     0.278822764025239    0.395867282729473    0.134438198310224
H17      H     0.185753593547798    0.255928474231171    0.224393525210250
H18      H     0.161521664532952    0.228264365711595    0.370192904276284
H19      H     0.216957517211286    0.327752717513429    0.519029447394495
H20      H     0.445811979084013    0.406073657219893    0.681817762606489
H21      H     0.804983976473207    0.424875299727867    0.729868936162098
H22      H     0.935493081056645    0.367165213526397    0.611225851388476
H23      H     0.938828759224530    0.017234373263662    0.557322179485628
H24      H     0.792396786712938    0.127993274289281    0.579039498037384
H25      H     0.977220235702998    0.108858620671684    0.888585889557062
H26      H     0.890596374406994    0.001665980416679    0.733107297345127
H27      H     0.537566696693422   -0.001230902036546    0.605026997714381
H28      H     0.278822764025239    0.104132717270528    0.634438198310223
H29      H     0.185753593547798    0.244071525768829    0.724393525210250
H30      H     0.161521664532952    0.271735634288405    0.870192904276285
H31      H     0.216957517211286    0.172247282486571    1.019029447394494
H32      H     0.445811979084013    0.093926342780106    1.181817762606487
H33      H     0.804983976473207    0.075124700272133    1.229868936162096
H34      H     0.935493081056645    0.132834786473603    1.111225851388476
H35      H     0.938828759224530    0.482765626736338    1.057322179485627
H36      H     0.792396786712938    0.372006725710718    1.079039498037383
H37      H     0.022779703839735    0.608858620671684    0.611414135448372
H38      H     0.109403565135737    0.501665980416681    0.766892727660307
H39      H     0.462433242849310    0.498769097963454    0.894973027291053
H40      H     0.721177175517492    0.604132717270528    0.865561826695211
H41      H     0.814246345994935    0.744071525768830    0.775606499795183
H42      H     0.838478275009780    0.771735634288406    0.629807120729149
H43      H     0.783042422331447    0.672247282486571    0.480970577610940
H44      H     0.554187960458717    0.593926342780106    0.318182262398945
H45      H     0.195015963069525    0.575124700272133    0.270131088843339
H46      H     0.064506858486087    0.632834786473602    0.388774173616958
H47      H     0.061171180318203    0.982765626736338    0.442677845519808
H48      H     0.207603152829794    0.872006725710718    0.420960526968051
C1       C     0.175622769009997    0.892308340946894    0.167371902371427
C2       C     0.224790892204278    0.952202719245757    0.254990354888688
C3       C     0.421945646055745    0.953344925088239    0.326783008568631
C4       C     0.567407937085688    0.894591143805741    0.310180846360322
C5       C     0.683443039334549    0.778807858983278    0.208438059677723
C6       C     0.698540464083716    0.763888811027798    0.124681543741004
C7       C     0.625347905509151    0.837759762789425   -0.039255437940988
C8       C     0.497355422814698    0.881802820963550   -0.130532753262577
C9       C     0.294636145843283    0.893280217510811   -0.157273705389258
C10      C     0.222234304848012    0.859993059503609   -0.091759809039415
C11      C     0.350464374945465    0.813198228719889   -0.000535753892453
C12      C     0.556294604078534    0.803561518651420    0.028460502151593
C13      C     0.521884947801134    0.834306534647786    0.221874281711922
C14      C     0.321568890043707    0.832441618455827    0.150913612690343
C15      C     0.157320141886309    0.661169202037144    0.040404431876875
C16      C     0.824377170532736    0.392308340946894    0.332628122634007
C17      C     0.775209047338452    0.452202719245756    0.245009670116747
C18      C     0.578054293486987    0.453344925088239    0.173217016436803
C19      C     0.432592002457044    0.394591143805740    0.189819178645112
C20      C     0.316556900208182    0.278807858983277    0.291561965327711
C21      C     0.301459475459016    0.263888811027798    0.375318481264429
C22      C     0.374652034033582    0.337759762789426    0.539255462946421
C23      C     0.502644516728033    0.381802820963550    0.630532778268011
C24      C     0.705363793699449    0.393280217510810    0.657273730394692
C25      C     0.777765634694720    0.359993059503611    0.591759834044850
C26      C     0.649535564597268    0.313198228719889    0.500535778897889
C27      C     0.443705335464197    0.303561518651420    0.471539522853839
C28      C     0.478114991741598    0.334306534647785    0.278125743293513
C29      C     0.678431049499025    0.332441618455828    0.349086412315091
C30      C     0.842679797656423    0.161169202037144    0.459595593128560
C31      C     0.824377170532736    0.107691659053106    0.832628122634007
C32      C     0.775209047338452    0.047797280754244    0.745009670116746
C33      C     0.578054293486987    0.046655074911761    0.673217016436803
C34      C     0.432592002457044    0.105408856194260    0.689819178645112
C35      C     0.316556900208182    0.221192141016723    0.791561965327712
C36      C     0.301459475459016    0.236111188972202    0.875318481264429
C37      C     0.374652034033582    0.162240237210574    1.039255462946423
C38      C     0.502644516728033    0.118197179036450    1.130532778268011
C39      C     0.705363793699449    0.106719782489190    1.157273730394692
C40      C     0.777765634694720    0.140006940496390    1.091759834044850
C41      C     0.649535564597268    0.186801771280111    1.000535778897889
C42      C     0.443705335464197    0.196438481348580    0.971539522853841
C43      C     0.478114991741598    0.165693465352215    0.778125743293513
C44      C     0.678431049499025    0.167558381544172    0.849086412315091
C45      C     0.842679797656423    0.338830797962856    0.959595593128558
C46      C     0.175622769009997    0.607691659053106    0.667371902371427
C47      C     0.224790892204278    0.547797280754243    0.754990354888688
C48      C     0.421945646055745    0.546655074911761    0.826783008568631
C49      C     0.567407937085688    0.605408856194259    0.810180846360322
C50      C     0.683443039334549    0.721192141016722    0.708438059677723
C51      C     0.698540464083716    0.736111188972202    0.624681543741005
C52      C     0.625347905509151    0.662240237210575    0.460744562059013
C53      C     0.497355422814698    0.618197179036450    0.369467246737423
C54      C     0.294636145843283    0.606719782489189    0.342726294610742
C55      C     0.222234304848012    0.640006940496391    0.408240190960585
C56      C     0.350464374945465    0.686801771280111    0.499464246107546
C57      C     0.556294604078534    0.696438481348580    0.528460502151593
C58      C     0.521884947801134    0.665693465352214    0.721874281711921
C59      C     0.321568890043707    0.667558381544173    0.650913612690343
C60      C     0.157320141886309    0.838830797962856    0.540404431876877
N1       N     0.269113935644479    0.768368394322149    0.061665533238644
N2       N     0.138713245320572    0.598705871396973   -0.039522304770836
N3       N     0.730886003898254    0.268368394322148    0.438334491766790
N4       N     0.861286694222161    0.098705871396973    0.539522329776270
N5       N     0.730886003898254    0.231631605677852    0.938334491766789
N6       N     0.861286694222161    0.401294128603026    1.039522329776270
N7       N     0.269113935644479    0.731631605677851    0.561665533238645
N8       N     0.138713245320572    0.901294128603027    0.460477695229164
O1       O     0.079189134410485    0.625249877334552    0.092398748802409
O2       O     0.920810805132246    0.125249877334550    0.407601276203025
O3       O     0.920810805132246    0.374750122665450    0.907601276203023
O4       O     0.079189134410485    0.874750122665448    0.592398748802411
