data_CBMZPN01.b3lyp.6-311G**.dma4.-120.883.1.3557
_audit_creation_method 'generated by cspy2.0'
_cell_length_a 7.3827
_cell_length_b 11.0484
_cell_length_c 15.2559
_cell_angle_alpha 90.0
_cell_angle_beta 111.52420000000001
_cell_angle_gamma 90.0
loop_
_symmetry_equiv_pos_site_id
_symmetry_equiv_pos_as_xyz
1 +x,+y,+z
loop_
_atom_site_label
_atom_site_type_symbol
_atom_site_fract_x
_atom_site_fract_y
_atom_site_fract_z
_atom_site_occupancy
C1 C       0.163404120000       0.893503500000       0.166601100000       1.000000000000
C2 C       0.203903440000       0.957106840000       0.249320530000       1.000000000000
C3 C       0.391239480000       0.959426230000       0.315438220000       1.000000000000
C4 C       0.536919360000       0.898134220000       0.298451880000       1.000000000000
C5 C       0.662266850000       0.772138330000       0.199306640000       1.000000000000
C6 C       0.687309130000       0.754757170000       0.118237360000       1.000000000000
C7 C       0.638263860000       0.829459710000      -0.041616360000       1.000000000000
C8 C       0.522945450000       0.873578370000      -0.128793650000       1.000000000000
C9 C       0.324807550000       0.886335480000      -0.151710810000       1.000000000000
C10 C       0.242171860000       0.853868010000      -0.087323020000       1.000000000000
C11 C       0.357769530000       0.807029110000       0.000025810000       1.000000000000
C12 C       0.558495290000       0.795983290000       0.025238910000       1.000000000000
C13 C       0.500734090000       0.832709060000       0.214665390000       1.000000000000
C14 C       0.309530910000       0.831282980000       0.149341460000       1.000000000000
C15 C       0.162552140000       0.658448790000       0.047341040000       1.000000000000
C16 C       0.824911300000       0.104597730000       0.783475820000       1.000000000000
C17 C       0.784787130000       0.040580140000       0.700966110000       1.000000000000
C18 C       0.596161190000       0.033825080000       0.636489470000       1.000000000000
C19 C       0.448823460000       0.091123230000       0.654896830000       1.000000000000
C20 C       0.321543750000       0.213013650000       0.755476860000       1.000000000000
C21 C       0.299667950000       0.229139640000       0.837412800000       1.000000000000
C22 C       0.360997660000       0.154633140000       0.998586910000       1.000000000000
C23 C       0.482356580000       0.112947440000       1.085471600000       1.000000000000
C24 C       0.680496440000       0.105232940000       1.106356340000       1.000000000000
C25 C       0.757017870000       0.140305250000       1.040222050000       1.000000000000
C26 C       0.635198800000       0.184702880000       0.953148550000       1.000000000000
C27 C       0.434492490000       0.190656150000       0.929990440000       1.000000000000
C28 C       0.484612150000       0.156840310000       0.738520480000       1.000000000000
C29 C       0.677084940000       0.162809940000       0.802157570000       1.000000000000
C30 C       0.816564130000       0.338622960000       0.902102910000       1.000000000000
C31 C       0.820975230000       0.393503500000       0.285603760000       1.000000000000
C32 C       0.780475900000       0.457106840000       0.202884330000       1.000000000000
C33 C       0.593139870000       0.459426230000       0.136766640000       1.000000000000
C34 C       0.447460000000       0.398134220000       0.153752960000       1.000000000000
C35 C       0.322112490000       0.272138330000       0.252898220000       1.000000000000
C36 C       0.297070210000       0.254757170000       0.333967490000       1.000000000000
C37 C       0.346115480000       0.329459710000       0.493821220000       1.000000000000
C38 C       0.461433880000       0.373578370000       0.580998500000       1.000000000000
C39 C       0.659571770000       0.386335490000       0.603915650000       1.000000000000
C40 C       0.742207480000       0.353868020000       0.539527880000       1.000000000000
C41 C       0.626609810000       0.307029110000       0.452179040000       1.000000000000
C42 C       0.425884040000       0.295983290000       0.426965940000       1.000000000000
C43 C       0.483645270000       0.332709060000       0.237539460000       1.000000000000
C44 C       0.674848440000       0.331282980000       0.302863390000       1.000000000000
C45 C       0.821827190000       0.158448790000       0.404863800000       1.000000000000
C46 C       0.159468030000       0.604597730000       0.668729030000       1.000000000000
C47 C       0.199592210000       0.540580140000       0.751238740000       1.000000000000
C48 C       0.388218160000       0.533825080000       0.815715380000       1.000000000000
C49 C       0.535555890000       0.591123230000       0.797308020000       1.000000000000
C50 C       0.662835580000       0.713013650000       0.696728010000       1.000000000000
C51 C       0.684711390000       0.729139640000       0.614792060000       1.000000000000
C52 C       0.623381680000       0.654633140000       0.453617940000       1.000000000000
C53 C       0.502022770000       0.612947440000       0.366733250000       1.000000000000
C54 C       0.303882910000       0.605232940000       0.345848500000       1.000000000000
C55 C       0.227361470000       0.640305240000       0.411982800000       1.000000000000
C56 C       0.349180550000       0.684702880000       0.499056310000       1.000000000000
C57 C       0.549886850000       0.690656150000       0.522214410000       1.000000000000
C58 C       0.499767190000       0.656840310000       0.713684370000       1.000000000000
C59 C       0.307294400000       0.662809940000       0.650047290000       1.000000000000
C60 C       0.167815220000       0.838622960000       0.550101940000       1.000000000000
N1 N       0.267531300000       0.764883850000       0.063165630000       1.000000000000
N2 N       0.155765210000       0.594837910000      -0.028651830000       1.000000000000
N3 N       0.718686730000       0.229635470000       0.888116190000       1.000000000000
N4 N       0.822974030000       0.401812250000       0.978222770000       1.000000000000
N5 N       0.716848050000       0.264883860000       0.389039210000       1.000000000000
N6 N       0.828614140000       0.094837900000       0.480856670000       1.000000000000
N7 N       0.265692600000       0.729635470000       0.564088650000       1.000000000000
N8 N       0.161405320000       0.901812250000       0.473982080000       1.000000000000
O1 O       0.081512240000       0.624651310000       0.100525210000       1.000000000000
O2 O       0.891977910000       0.374901620000       0.847277690000       1.000000000000
O3 O       0.902867120000       0.124651310000       0.351679640000       1.000000000000
O4 O       0.092401420000       0.874901610000       0.604927160000       1.000000000000
H1 H       0.034224770000       0.894507220000       0.119629770000       1.000000000000
H2 H       0.101585550000       1.002487210000       0.262858860000       1.000000000000
H3 H       0.420837740000       1.001983120000       0.374597750000       1.000000000000
H4 H       0.664775770000       0.895553270000       0.342128660000       1.000000000000
H5 H       0.773390900000       0.749589550000       0.260608390000       1.000000000000
H6 H       0.809874000000       0.729472020000       0.120036750000       1.000000000000
H7 H       0.784354520000       0.819806330000      -0.026055970000       1.000000000000
H8 H       0.578536750000       0.902699590000      -0.178397150000       1.000000000000
H9 H       0.235675900000       0.917649250000      -0.214512270000       1.000000000000
H10 H       0.104010720000       0.852562790000      -0.100377570000       1.000000000000
H11 H       0.085247090000       0.534799530000      -0.042191520000       1.000000000000
H12 H       0.212239530000       0.624040430000      -0.065362420000       1.000000000000
H13 H       0.955216370000       0.106644870000       0.829345610000       1.000000000000
H14 H       0.888339430000      -0.001981650000       0.686432240000       1.000000000000
H15 H       0.566648790000      -0.009047100000       0.577466810000       1.000000000000
H16 H       0.319890790000       0.090663000000       0.612323330000       1.000000000000
H17 H       0.207014810000       0.233070770000       0.694791600000       1.000000000000
H18 H       0.176598670000       0.251202100000       0.836854990000       1.000000000000
H19 H       0.214956220000       0.160558700000       0.984534790000       1.000000000000
H20 H       0.431660260000       0.082034540000       1.136354950000       1.000000000000
H21 H       0.773889490000       0.075830350000       1.168872870000       1.000000000000
H22 H       0.894378060000       0.145139380000       1.051762880000       1.000000000000
H23 H       0.889604070000       0.463553620000       0.990633080000       1.000000000000
H24 H       0.770766550000       0.370887830000       1.016113510000       1.000000000000
H25 H       0.950154580000       0.394507220000       0.332575080000       1.000000000000
H26 H       0.882793800000       0.502487210000       0.189345990000       1.000000000000
H27 H       0.563541610000       0.501983120000       0.077607100000       1.000000000000
H28 H       0.319603580000       0.395553280000       0.110076190000       1.000000000000
H29 H       0.210988440000       0.249589540000       0.191596450000       1.000000000000
H30 H       0.174505340000       0.229472020000       0.332168100000       1.000000000000
H31 H       0.200024820000       0.319806330000       0.478260820000       1.000000000000
H32 H       0.405842580000       0.402699580000       0.630601990000       1.000000000000
H33 H       0.748703420000       0.417649250000       0.666717120000       1.000000000000
H34 H       0.880368620000       0.352562780000       0.552582430000       1.000000000000
H35 H       0.899132240000       0.034799530000       0.494396380000       1.000000000000
H36 H       0.772139800000       0.124040430000       0.517567280000       1.000000000000
H37 H       0.029162970000       0.606644870000       0.622859250000       1.000000000000
H38 H       0.096039910000       0.498018350000       0.765772600000       1.000000000000
H39 H       0.417730540000       0.490952900000       0.874738040000       1.000000000000
H40 H       0.664488550000       0.590663000000       0.839881520000       1.000000000000
H41 H       0.777364520000       0.733070770000       0.757413250000       1.000000000000
H42 H       0.807780680000       0.751202100000       0.615349860000       1.000000000000
H43 H       0.769423130000       0.660558700000       0.467670060000       1.000000000000
H44 H       0.552719090000       0.582034540000       0.315849920000       1.000000000000
H45 H       0.210489860000       0.575830360000       0.283331980000       1.000000000000
H46 H       0.090001290000       0.645139380000       0.400441970000       1.000000000000
H47 H       0.094775270000       0.963553610000       0.461571770000       1.000000000000
H48 H       0.213612800000       0.870887830000       0.436091340000       1.000000000000
#END