data_image0
_chemical_formula_structural       C56N4C4N4O4H48
_chemical_formula_sum              "C60 N8 O4 H48"
_cell_length_a       7.529
_cell_length_b       11.148
_cell_length_c       15.47
_cell_angle_alpha    90.0
_cell_angle_beta     116.17
_cell_angle_gamma    90.0

_space_group_name_H-M_alt    "P 1"
_space_group_IT_number       1

loop_
  _space_group_symop_operation_xyz
  'x, y, z'

loop_
  _atom_site_type_symbol
  _atom_site_label
  _atom_site_symmetry_multiplicity
  _atom_site_fract_x
  _atom_site_fract_y
  _atom_site_fract_z
  _atom_site_occupancy
  C   C1        1.0  0.1736427668862452  0.8883402959106597  0.16605592044364725  1.0000
  C   C2        1.0  0.8263571821511267  0.3883405382488367  0.33394408364020445  1.0000
  C   C3        1.0  0.8265805230529993  0.11152559954997604  0.834034999331032  1.0000
  C   C4        1.0  0.17341947825605228  0.6115253960691338  0.6659650097011857  1.0000
  C   C5        1.0  0.22304176205454168  0.9490742056166241  0.2524434407229754  1.0000
  C   C6        1.0  0.776958361717827  0.449073931369443  0.24755654825696433  1.0000
  C   C7        1.0  0.7771887929874786  0.050820833892960236  0.747629440869301  1.0000
  C   C8        1.0  0.22281122112453197  0.5508207994780026  0.7523704948022826  1.0000
  C   C9        1.0  0.41977444277004794  0.9514080178888904  0.3228802749969278  1.0000
  C   C10       1.0  0.5802256236555751  0.4514082469423837  0.1771197872431849  1.0000
  C   C11       1.0  0.5804078295134054  0.04837091788555769  0.6772513300124451  1.0000
  C   C12       1.0  0.4195919790745371  0.548371050189329  0.8227486594712198  1.0000
  C   C13       1.0  0.5646218805082062  0.892854623485982  0.3061902840886451  1.0000
  C   C14       1.0  0.4353780426180865  0.3928545481627249  0.1938097451667293  1.0000
  C   C15       1.0  0.4355587927271251  0.10686050359684822  0.6939858019400814  1.0000
  C   C16       1.0  0.5644414032274176  0.6068602557358623  0.8060141206601489  1.0000
  C   C17       1.0  0.679916057114821  0.7764827054398423  0.20533185157554562  1.0000
  C   C18       1.0  0.3200838920270579  0.27648293512861105  0.29466817085871566  1.0000
  C   C19       1.0  0.3203823817557017  0.22352518487999612  0.7947377226750463  1.0000
  C   C20       1.0  0.6796177115951324  0.7235250673069664  0.7052623897784392  1.0000
  C   C21       1.0  0.6943200512591249  0.7607789244228805  0.12176086441919354  1.0000
  C   C22       1.0  0.305679924546056  0.2607788255240918  0.37823915241550254  1.0000
  C   C23       1.0  0.30590056610167826  0.2392694775152766  0.8782896956394322  1.0000
  C   C24       1.0  0.6940995037427574  0.7392694514311993  0.6217102928511127  1.0000
  C   C25       1.0  0.6207430114565283  0.8349570310896633  0.9588755666220401  1.0000
  C   C26       1.0  0.37925726931732  0.334956902711744  0.5411246306757518  1.0000
  C   C27       1.0  0.3794330637672912  0.16521820347770252  0.04122789024489934  1.0000
  C   C28       1.0  0.6205671439217252  0.6652181109790708  0.45877217280369303  1.0000
  C   C29       1.0  0.49313273865471485  0.8797683458892908  0.868956315343073  1.0000
  C   C30       1.0  0.5068669388027222  0.3797683332913922  0.6310433691851752  1.0000
  C   C31       1.0  0.506914244727285  0.12018013949703488  0.13106821615862102  1.0000
  C   C32       1.0  0.49308574990165205  0.6201800976455171  0.36893189132492676  1.0000
  C   C33       1.0  0.29123663775620073  0.8910762449403876  0.8433465430035361  1.0000
  C   C34       1.0  0.708763156196772  0.3910764226791321  0.6566534562420928  1.0000
  C   C35       1.0  0.7087938003329279  0.10870302032557133  0.15664650674048186  1.0000
  C   C36       1.0  0.2912063427391766  0.6087031165522351  0.3433533738071859  1.0000
  C   C37       1.0  0.21923875777475885  0.8570952999620621  0.9087237234727412  1.0000
  C   C38       1.0  0.7807612736964411  0.3570950292925269  0.5912763065701795  1.0000
  C   C39       1.0  0.7808873490686683  0.14282066694199397  0.09135921104171504  1.0000
  C   C40       1.0  0.2191125309314631  0.6428204551959654  0.4086408266909841  1.0000
  C   C41       1.0  0.34708207461241386  0.8097218393511701  0.9986521944073554  1.0000
  C   C42       1.0  0.6529181029629274  0.30972207844789934  0.5013478177120352  1.0000
  C   C43       1.0  0.6531367481144419  0.1902731730867397  0.0014394406543343874  1.0000
  C   C44       1.0  0.3468633351431432  0.6902732237553156  0.4985605633763418  1.0000
  C   C45       1.0  0.5522000608170707  0.8001740586379525  0.026489442347434514  1.0000
  C   C46       1.0  0.4477999365414226  0.3001742110775615  0.47351050115024124  1.0000
  C   C47       1.0  0.4480473336074199  0.1999913739267702  0.9736225466358089  1.0000
  C   C48       1.0  0.5519525639007301  0.6999914225378058  0.5263774922814848  1.0000
  C   C49       1.0  0.5189125849737173  0.8317343278986704  0.21907681906874138  1.0000
  C   C50       1.0  0.48108747104049915  0.33173417281133477  0.28092306562489094  1.0000
  C   C51       1.0  0.48131377937599623  0.16808644364932282  0.7810744508424803  1.0000
  C   C52       1.0  0.5186860157942927  0.6680864427805231  0.7189255887646625  1.0000
  C   C53       1.0  0.318887773952489  0.8287917318626874  0.14936994515876642  1.0000
  C   C54       1.0  0.681112168390304  0.3287917953756384  0.3506301357114627  1.0000
  C   C55       1.0  0.6813765105255395  0.1710964232499185  0.8507318572619557  1.0000
  C   C56       1.0  0.31862346222060256  0.6710966185686391  0.6492681320351371  1.0000
  N   N1        1.0  0.2666278792917832  0.7650917734703356  0.06096083556709787  1.0000
  N   N2        1.0  0.7333721109461607  0.26509170706578  0.439039171215098  1.0000
  N   N3        1.0  0.7337929266760447  0.23480271104650957  0.9391361367343738  1.0000
  N   N4        1.0  0.2662069097910414  0.7348029154752228  0.5608637518355747  1.0000
  C   C57       1.0  0.15524783720384677  0.6600907084812865  0.04002191236158733  1.0000
  C   C58       1.0  0.8447520270429414  0.1600907521575862  0.459977990945378  1.0000
  C   C59       1.0  0.8444654473345161  0.34005840694390305  0.9598409174207481  1.0000
  C   C60       1.0  0.15553441838739185  0.8400582361954001  0.5401590340052322  1.0000
  N   N5        1.0  0.13438995992489108  0.5997109342057645  0.9598593561162978  1.0000
  N   N6        1.0  0.8656101442729118  0.0997108460967941  0.5401407665538692  1.0000
  N   N7        1.0  0.8647901673571313  0.4006191103017892  0.039850682612743306  1.0000
  N   N8        1.0  0.1352098855521542  0.9006191539649717  0.46014931935222125  1.0000
  O   O1        1.0  0.07861296778393378  0.6237767152499493  0.09264908461836562  1.0000
  O   O2        1.0  0.9213871947382245  0.1237767168627462  0.40735093974942976  1.0000
  O   O3        1.0  0.9211505856798883  0.37637050431667224  0.907231871317145  1.0000
  O   O4        1.0  0.07884943444621718  0.8763705096181688  0.5927682192592071  1.0000
  H   H1        1.0  0.020928561120978528  0.8863859344296446  0.11109756016919636  1.0000
  H   H2        1.0  0.9790714664673693  0.38638591753212753  0.3889024168611215  1.0000
  H   H3        1.0  0.9793320285564189  0.1135945424932146  0.8889670014763617  1.0000
  H   H4        1.0  0.02066798547263676  0.6135945061996707  0.6110330525278617  1.0000
  H   H5        1.0  0.10800079516872382  0.9949866292327953  0.26444348827067754  1.0000
  H   H6        1.0  0.8919991732667557  0.49498667445380506  0.23555655920536953  1.0000
  H   H7        1.0  0.8922426592935228  0.005022192085086834  0.7355710281806419  1.0000
  H   H8        1.0  0.10775719229527503  0.5050221601460589  0.7644289589910684  1.0000
  H   H9        1.0  0.4604407137013852  0.00010808034727638471  0.39009789462397393  1.0000
  H   H10       1.0  0.539559338665444  0.5001080287952516  0.10990212525522099  1.0000
  H   H11       1.0  0.5396609378347885  0.999590908242024  0.6100638111921227  1.0000
  H   H12       1.0  0.46033914218243327  0.4995909318405633  0.8899360948682937  1.0000
  H   H13       1.0  0.7183164053515253  0.8952604423752869  0.36055460690888397  1.0000
  H   H14       1.0  0.2816836202072541  0.3952604262142969  0.13944545758107035  1.0000
  H   H15       1.0  0.2818303313977306  0.10435673004549852  0.6396768014597825  1.0000
  H   H16       1.0  0.7181697741588656  0.6043568215529768  0.8603232579923351  1.0000
  H   H17       1.0  0.8105099354763953  0.7543263401194717  0.27190043971392697  1.0000
  H   H18       1.0  0.18949022584895178  0.2543263369494517  0.2280996106516065  1.0000
  H   H19       1.0  0.18993136027369484  0.24585665911909652  0.7281519729290955  1.0000
  H   H20       1.0  0.8100685581965973  0.745856651148403  0.7718479580864934  1.0000
  H   H21       1.0  0.8334728191245593  0.7251260313545008  0.12626008309090708  1.0000
  H   H22       1.0  0.1665270861929516  0.2251260286887547  0.37373991778778104  1.0000
  H   H23       1.0  0.16670367210940654  0.2748784968551696  0.8737790289504088  1.0000
  H   H24       1.0  0.8332962570002032  0.7748784937133469  0.6262209651355124  1.0000
  H   H25       1.0  0.7779377043777578  0.8251844330141532  0.9781296496924017  1.0000
  H   H26       1.0  0.22206226924844777  0.3251845083848555  0.5218703978778633  1.0000
  H   H27       1.0  0.22228795959343897  0.1752335171809889  0.022023289746166325  1.0000
  H   H28       1.0  0.7777120497460097  0.6752335445296692  0.47797668657074294  1.0000
  H   H29       1.0  0.5496644220148678  0.9051122007118474  0.81778419161097  1.0000
  H   H30       1.0  0.4503356072335689  0.40511222754053383  0.6822159553136895  1.0000
  H   H31       1.0  0.45041614728919444  0.09493514403239978  0.18227120963923782  1.0000
  H   H32       1.0  0.5495838080985224  0.5949351364845493  0.31772875596072353  1.0000
  H   H33       1.0  0.19197734642049444  0.9232130471314662  0.7716231025448154  1.0000
  H   H34       1.0  0.8080226470514554  0.42321296546173004  0.7283768229812795  1.0000
  H   H35       1.0  0.8080072119622845  0.07643676498039434  0.22833812673216877  1.0000
  H   H36       1.0  0.19199267676182555  0.5764367085998813  0.2716618511247273  1.0000
  H   H37       1.0  0.06200686736076612  0.864284879046687  0.8901637785883035  1.0000
  H   H38       1.0  0.9379931987067562  0.3642849535329814  0.6098361877390844  1.0000
  H   H39       1.0  0.938112360559899  0.1356108637955748  0.10993079696125034  1.0000
  H   H40       1.0  0.06188764935028274  0.6356108713535672  0.39006921698884034  1.0000
  H   H41       1.0  0.059126801682746956  0.5191417549481259  0.9428531884681601  1.0000
  H   H42       1.0  0.9408732153005925  0.01914179905374274  0.5571467872472737  1.0000
  H   H43       1.0  0.9400047565890165  0.4812082196950509  0.056809964833745806  1.0000
  H   H44       1.0  0.05999529402105951  0.9812081199982133  0.44319006678398637  1.0000
  H   H45       1.0  0.2030942887241126  0.6280423227730637  0.9201097590556228  1.0000
  H   H46       1.0  0.7969057013331867  0.12804236618475184  0.5798902108902303  1.0000
  H   H47       1.0  0.7954185843859751  0.3725835702383598  0.07937244060535821  1.0000
  H   H48       1.0  0.20458149083421837  0.8725834956206444  0.42062751235049567  1.0000
