data_image0
_chemical_formula_structural       C56N4C4N4O4H48
_chemical_formula_sum              "C60 N8 O4 H48"
_cell_length_a       7.712109846602343
_cell_length_b       10.911645955258592
_cell_length_c       16.090577893022946
_cell_angle_alpha    90.02733503442968
_cell_angle_beta     114.29299633435932
_cell_angle_gamma    89.90636018539557

_space_group_name_H-M_alt    "P 1"
_space_group_IT_number       1

loop_
  _space_group_symop_operation_xyz
  'x, y, z'

loop_
  _atom_site_type_symbol
  _atom_site_label
  _atom_site_symmetry_multiplicity
  _atom_site_fract_x
  _atom_site_fract_y
  _atom_site_fract_z
  _atom_site_occupancy
  C   C1        1.0  0.16582502351162834  0.8808956877115616  0.15622851585013223  1.0000
  C   C2        1.0  0.8337056312091446  0.3811986898874044  0.34349351703753433  1.0000
  C   C3        1.0  0.8342163962233418  0.1196794859850497  0.8430672005186017  1.0000
  C   C4        1.0  0.16497588126851265  0.617900381651326  0.6565032694183757  1.0000
  C   C5        1.0  0.20279400930057534  0.9448187612306045  0.23649501729498812  1.0000
  C   C6        1.0  0.7957846300986368  0.4450036934481701  0.26309694608451745  1.0000
  C   C7        1.0  0.7969075939349674  0.055700405138803456  0.7627883061240552  1.0000
  C   C8        1.0  0.20250995016585516  0.5541040045215734  0.7368686974511128  1.0000
  C   C9        1.0  0.38876809473398694  0.9535303225827442  0.3030073851873786  1.0000
  C   C10       1.0  0.6096313806889404  0.45320688322265346  0.19664095594360317  1.0000
  C   C11       1.0  0.6107791724992094  0.046824588051528046  0.6964119429281214  1.0000
  C   C12       1.0  0.38849437225641414  0.546061448032631  0.8035184984937265  1.0000
  C   C13       1.0  0.5356748023189655  0.8981561361209212  0.28828158707732043  1.0000
  C   C14       1.0  0.4634868442468904  0.3973457442868667  0.21150445090095502  1.0000
  C   C15       1.0  0.4640983691366119  0.10233827111478729  0.7112070482751193  1.0000
  C   C16       1.0  0.5348124790690405  0.6020748350722793  0.7888971450640709  1.0000
  C   C17       1.0  0.6638298794331686  0.7806304001407842  0.19650321904640958  1.0000
  C   C18       1.0  0.33693991834566545  0.27933418881890704  0.30349284867475085  1.0000
  C   C19       1.0  0.33620197910051725  0.21963902434181334  0.8031206769246758  1.0000
  C   C20       1.0  0.6619163280630943  0.7198596701254544  0.697017743733913  1.0000
  C   C21       1.0  0.6862286558307978  0.7626888450408353  0.11827295004358052  1.0000
  C   C22       1.0  0.31462260691823124  0.26170137268711263  0.38175306977689255  1.0000
  C   C23       1.0  0.31408396923747245  0.2373541036482412  0.8814584934377301  1.0000
  C   C24       1.0  0.6845654018823033  0.7377865029452918  0.6188411482412355  1.0000
  C   C25       1.0  0.6254055685282528  0.8316765274711038  0.9634058256325175  1.0000
  C   C26       1.0  0.3745324634662683  0.33117931994244176  0.5363769809318498  1.0000
  C   C27       1.0  0.3755416374590232  0.1680340153175184  0.03627619300109132  1.0000
  C   C28       1.0  0.6251905095593285  0.6694408996840078  0.463974830415371  1.0000
  C   C29       1.0  0.5072334281238893  0.8718618750432204  0.8767627670694735  1.0000
  C   C30       1.0  0.49202847965559265  0.37207179759224634  0.6228630324367314  1.0000
  C   C31       1.0  0.49386656617877583  0.12772033272268826  0.12283058415125468  1.0000
  C   C32       1.0  0.5078318335760023  0.628561480117224  0.3774547774729997  1.0000
  C   C33       1.0  0.31136610458312547  0.8780122882282105  0.8513177896614309  1.0000
  C   C34       1.0  0.6878079903302877  0.3791093608645593  0.6483030735933287  1.0000
  C   C35       1.0  0.6897615901860462  0.12190772242165034  0.14823818873778258  1.0000
  C   C36       1.0  0.31210903994126565  0.6210723092339326  0.35202347781837834  1.0000
  C   C37       1.0  0.23625046321122814  0.8435358722866566  0.9128542337922144  1.0000
  C   C38       1.0  0.763547697381994  0.3446971003497258  0.5869404218816742  1.0000
  C   C39       1.0  0.7647652753805444  0.15668934524267622  0.08672999773496286  1.0000
  C   C40       1.0  0.23617786016953027  0.6551148616457078  0.41338944498606695  1.0000
  C   C41       1.0  0.35506096545880106  0.8015462436679139  0.9998943995575086  1.0000
  C   C42       1.0  0.645391032772037  0.301902835384641  0.5000616987020511  1.0000
  C   C43       1.0  0.6457090680553401  0.19878932661281948  0.9997137060347567  1.0000
  C   C44       1.0  0.354132178995302  0.6977211501267043  0.5003182191032224  1.0000
  C   C45       1.0  0.553340609506317  0.7972658827969514  0.027183731953430375  1.0000
  C   C46       1.0  0.4471502076012091  0.2969249199635116  0.4727068270195191  1.0000
  C   C47       1.0  0.44739923325130077  0.20279476834252086  0.9724700908259086  1.0000
  C   C48       1.0  0.5523921286242773  0.70307922955842  0.5276978197558164  1.0000
  C   C49       1.0  0.5018918194687453  0.833909588981785  0.20733516613481662  1.0000
  C   C50       1.0  0.4982295199237453  0.3331675086826348  0.2925566720486899  1.0000
  C   C51       1.0  0.4982197958833467  0.16670469225000545  0.7921526417909541  1.0000
  C   C52       1.0  0.5004578795930839  0.6662200532037031  0.7078564224392553  1.0000
  C   C53       1.0  0.3131847814040632  0.8250324776292524  0.14136160466402448  1.0000
  C   C54       1.0  0.6870455339531883  0.3248966019439359  0.3585040511057883  1.0000
  C   C55       1.0  0.6870009933036344  0.17560462106755237  0.8580313931543602  1.0000
  C   C56       1.0  0.31177307506095603  0.6743099756637018  0.6417174963747962  1.0000
  N   N1        1.0  0.272928737871754  0.7586156707031226  0.05929688853425766  1.0000
  N   N2        1.0  0.7281648984652301  0.2589655273826449  0.4408543358461224  1.0000
  N   N3        1.0  0.7276928362651488  0.24178620761221786  0.9402636608076421  1.0000
  N   N4        1.0  0.2708667914734035  0.7403453317367089  0.5594250199375189  1.0000
  C   C57       1.0  0.15509014325103315  0.6569545718105759  0.0375381701327996  1.0000
  C   C58       1.0  0.8465142446142998  0.1573479064314943  0.4628641293374317  1.0000
  C   C59       1.0  0.8454993201243551  0.34345053236743384  0.962012813881686  1.0000
  C   C60       1.0  0.1542687732691333  0.8428197005049708  0.5379894042333918  1.0000
  N   N5        1.0  0.13516869175059926  0.5955158619190971  0.9611927769921241  1.0000
  N   N6        1.0  0.8676093121840804  0.09649316435925968  0.5396000701034277  1.0000
  N   N7        1.0  0.8655966391857383  0.40496151962213456  0.03836248820436364  1.0000
  N   N8        1.0  0.13523134388055869  0.9046048605251009  0.4619381185401674  1.0000
  O   O1        1.0  0.0742334490528167  0.6240182911713129  0.08705630445487575  1.0000
  O   O2        1.0  0.927257114592214  0.12405717653056768  0.4133062024361055  1.0000
  O   O3        1.0  0.9265212513317462  0.37629456115462934  0.9125166267615111  1.0000
  O   O4        1.0  0.07335923865202841  0.8760397259306246  0.5874883456111152  1.0000
  H   H1        1.0  0.02025004937994328  0.8736011912511  0.1041985384402533  1.0000
  H   H2        1.0  0.9793536478410174  0.37440186478999693  0.3955489646641012  1.0000
  H   H3        1.0  0.9798325779939941  0.12693850348681376  0.8950533907211737  1.0000
  H   H4        1.0  0.01945552433030181  0.6245461429702316  0.6042805046162475  1.0000
  H   H5        1.0  0.08505843442211466  0.9881517893201407  0.2468659199943141  1.0000
  H   H6        1.0  0.9129104315158472  0.4887609695484329  0.25260615813859105  1.0000
  H   H7        1.0  0.9145870103648749  0.0122838081669552  0.7524042959498092  1.0000
  H   H8        1.0  0.08530568162946879  0.5101765708944574  0.7471761885130375  1.0000
  H   H9        1.0  0.4194348385750717  0.005284306883351908  0.36576456344302255  1.0000
  H   H10       1.0  0.5782789519107513  0.5049602004520084  0.13382012518421246  1.0000
  H   H11       1.0  0.5799618440486951  0.9947798021791322  0.6337600988382383  1.0000
  H   H12       1.0  0.4195761824194983  0.49422574490365095  0.8662765655443153  1.0000
  H   H13       1.0  0.6823360872365141  0.9057894670624522  0.33960707548171615  1.0000
  H   H14       1.0  0.31669708864087964  0.4044656983274118  0.16021410489766802  1.0000
  H   H15       1.0  0.3172822741840164  0.09473095007845013  0.6600528345499085  1.0000
  H   H16       1.0  0.6814847711861937  0.5950470532515848  0.8403315479998228  1.0000
  H   H17       1.0  0.7866508659998179  0.7615953410925276  0.2607818802477113  1.0000
  H   H18       1.0  0.21465199435405488  0.25945417322920605  0.23924263431059953  1.0000
  H   H19       1.0  0.21321930296462738  0.2386978333197404  0.7389141749773679  1.0000
  H   H20       1.0  0.7844511826370445  0.7391706957667157  0.7612934633144801  1.0000
  H   H21       1.0  0.8247706190253594  0.7292040198095082  0.12354499293986823  1.0000
  H   H22       1.0  0.17658867425519498  0.22778670339522591  0.3766507074657631  1.0000
  H   H23       1.0  0.1755783924886288  0.27069412774159574  0.8763040180690336  1.0000
  H   H24       1.0  0.823017666854384  0.7713910800916696  0.6242853796410935  1.0000
  H   H25       1.0  0.7794826471834445  0.8265386576858867  0.9839900629125103  1.0000
  H   H26       1.0  0.22056517150833388  0.3253317947218662  0.5158380873671404  1.0000
  H   H27       1.0  0.22147703777080424  0.1729160853258562  0.015744381623661343  1.0000
  H   H28       1.0  0.7791359549331682  0.6757657380063014  0.4845228731690961  1.0000
  H   H29       1.0  0.5668112259163193  0.8985495819427408  0.82839403110171  1.0000
  H   H30       1.0  0.4320769377458144  0.3987772484965851  0.6711282652654089  1.0000
  H   H31       1.0  0.43450561497621054  0.10056135457821774  0.17118594343298787  1.0000
  H   H32       1.0  0.5679823856691714  0.6022119492515667  0.3291934917803734  1.0000
  H   H33       1.0  0.21749062655938528  0.9080830106425275  0.7824927605804085  1.0000
  H   H34       1.0  0.7811863775055359  0.4098384521804554  0.7169888333806727  1.0000
  H   H35       1.0  0.7837751894393226  0.09166039549460482  0.21698465281632498  1.0000
  H   H36       1.0  0.21891510271067793  0.5902256369386151  0.2833494263821171  1.0000
  H   H37       1.0  0.08260041392292028  0.8471779478623807  0.8937042368216417  1.0000
  H   H38       1.0  0.9171623704318089  0.34902291584273637  0.6061346796021102  1.0000
  H   H39       1.0  0.918397612085668  0.1530889516989104  0.10582746818126038  1.0000
  H   H40       1.0  0.08259957698241273  0.6505571806901853  0.39424005395634404  1.0000
  H   H41       1.0  0.057609604471640596  0.5140448991600961  0.9442256752308871  1.0000
  H   H42       1.0  0.9445581089266429  0.01461647962548986  0.556312220708983  1.0000
  H   H43       1.0  0.943141009160888  0.4864316422203917  0.05522623139710258  1.0000
  H   H44       1.0  0.05798647506786863  0.9863846590468595  0.4451091577062266  1.0000
  H   H45       1.0  0.20769169630919185  0.6228139456704265  0.9239941900502306  1.0000
  H   H46       1.0  0.7942849072693866  0.12365806354609984  0.5764981716544001  1.0000
  H   H47       1.0  0.7929349301077209  0.37775742371013077  0.07550472212259719  1.0000
  H   H48       1.0  0.20822322134894258  0.8771943940506838  0.42493248958654734  1.0000
