data_C15H12N2O
_audit_creation_method 'chmpy python library version 1.0a1'
_cell_length_a 7.331249
_cell_length_b 10.727941
_cell_length_c 14.661308
_cell_angle_alpha 90.0
_cell_angle_beta 116.805229
_cell_angle_gamma 90.0
loop_
_symmetry_equiv_pos_site_id
_symmetry_equiv_pos_as_xyz
                   1 -x,-y,-z
                   2 +x,+y,+z
                   3 -x,1/2+y,1/2-z
                   4 +x,1/2-y,1/2+z
loop_
_atom_site_label
_atom_site_type_symbol
_atom_site_fract_x
_atom_site_fract_y
_atom_site_fract_z
_atom_site_occupancy
C C       0.180854000000       0.912903000000       0.188177000000       1.000000000000
C C       0.230183000000       0.978951000000       0.278702000000       1.000000000000
C C       0.434150000000       0.986492000000       0.353306000000       1.000000000000
C C       0.587570000000       0.927628000000       0.337124000000       1.000000000000
C C       0.712894000000       0.802372000000       0.233859000000       1.000000000000
C C       0.726836000000       0.779353000000       0.145853000000       1.000000000000
C C       0.653819000000       0.835463000000       0.967437000000       1.000000000000
C C       0.521089000000       0.870406000000       0.867110000000       1.000000000000
C C       0.311629000000       0.884483000000       0.836780000000       1.000000000000
C C       0.234928000000       0.863986000000       0.907343000000       1.000000000000
C C       0.365365000000       0.826973000000       1.008525000000       1.000000000000
C C       0.580847000000       0.814974000000       0.040641000000       1.000000000000
C C       0.542967000000       0.861932000000       0.245741000000       1.000000000000
C C       0.333038000000       0.853192000000       0.170103000000       1.000000000000
N N       0.276505000000       0.787177000000       0.074583000000       1.000000000000
C C       0.143212000000       0.680674000000       0.045582000000       1.000000000000
N N       0.118932000000       0.616372000000       0.958370000000       1.000000000000
O O       0.055261000000       0.645456000000       0.096720000000       1.000000000000
H H       0.023044000000       0.908960000000       0.128841000000       1.000000000000
H H       0.110279000000       1.024522000000       0.291474000000       1.000000000000
H H       0.474296000000       1.041180000000       0.422714000000       1.000000000000
H H       0.745974000000       0.931870000000       0.395887000000       1.000000000000
H H       0.846516000000       0.781162000000       0.306170000000       1.000000000000
H H       0.866028000000       0.734458000000       0.151976000000       1.000000000000
H H       0.815281000000       0.819410000000       0.988840000000       1.000000000000
H H       0.580517000000       0.885603000000       0.811693000000       1.000000000000
H H       0.208616000000       0.905874000000       0.756944000000       1.000000000000
H H       0.071768000000       0.872994000000       0.884845000000       1.000000000000
H H       0.062709000000       0.526187000000       0.944953000000       1.000000000000
H H       0.220652000000       0.629728000000       0.928829000000       1.000000000000
#END