data_cif

_audit_creation_method             'generated by GULP'

_symmetry_space_group_name_H-M     'P 1 21/C 1      '
_symmetry_Int_Tables_number        14
_symmetry_cell_setting             Monoclinic  

_cell_length_a                       7.689852
_cell_length_b                      11.286976
_cell_length_c                      14.318309
_cell_angle_alpha                   90.000000
_cell_angle_beta                   112.900100
_cell_angle_gamma                   90.000000

loop_
_atom_site_label
_atom_site_fract_x
_atom_site_fract_y
_atom_site_fract_z
_atom_site_occupancy
  C3          0.18721      0.87130      0.19319  1.0000
  C3          0.23286      0.94623      0.27738  1.0000
  C3          0.42153      0.95797      0.34502  1.0000
  C3          0.56396      0.89571      0.32756  1.0000
  C1          0.67319      0.75399      0.23105  1.0000
  C2          0.69127      0.74532      0.13857  1.0000
  C3          0.62985      0.85762      0.98120  1.0000
  C3          0.50836      0.90848      0.88987  1.0000
  C3          0.31311      0.90675      0.86343  1.0000
  C3          0.23934      0.85226      0.92799  1.0000
  C3          0.36091      0.79908      0.01899  1.0000
  C3          0.55800      0.80441      0.04755  1.0000
  C3          0.52002      0.82286      0.24170  1.0000
  C3          0.32966      0.80943      0.17500  1.0000
  N8          0.28454      0.74501      0.08389  1.0000
  C6          0.16001      0.65013      0.05523  1.0000
  N8          0.13476      0.60172      0.96410  1.0000
  O5          0.07814      0.60997      0.10555  1.0000
  H7          0.04138      0.86267      0.14098  1.0000
  H7          0.12204      0.99548      0.28959  1.0000
  H7          0.45796      0.01561      0.41064  1.0000
  H7          0.70957      0.90399      0.38085  1.0000
  H7          0.77336      0.70720      0.29561  1.0000
  H7          0.80543      0.69247      0.13450  1.0000
  H7          0.78054      0.85878      0.99981  1.0000
  H7          0.56560      0.94933      0.83942  1.0000
  H7          0.22015      0.94774      0.79310  1.0000
  H7          0.08789      0.85164      0.90764  1.0000
  H4          0.04955      0.52983      0.93959  1.0000
  H4          0.20628      0.63601      0.92420  1.0000
