# CIF file generated from CASTEP cell file
# https://gist.github.com/blake-armstrong/93facdde07a6e0a1ddb51857dd48e3f1
# Structure converted from CASTEP

data_structure

_cell_length_a    9.229742212949240
_cell_length_b    5.809972503648970
_cell_length_c    3.738043395713280
_cell_angle_alpha 90.000000000000000
_cell_angle_beta  90.000000000000000
_cell_angle_gamma 90.000000000000000

_symmetry_space_group_name_H-M 'P 1'
_symmetry_Int_Tables_number 1

loop_
_atom_site_label
_atom_site_type_symbol
_atom_site_fract_x
_atom_site_fract_y
_atom_site_fract_z
H1       H     0.137333294860121    0.323591536363675    0.235056831641148
H2       H     0.362666597901274    0.176408463636325    0.735056831641148
H3       H     0.137333294860121   -0.323591536363675   -0.235056831641148
H4       H     0.362666597901274    0.823591536363675    0.264943168358852
H5       H    -0.137333402098726    0.323591536363675    0.235056831641148
H6       H     0.637333294860121    0.176408463636325    0.735056831641148
H7       H    -0.137333402098726   -0.323591536363675   -0.235056831641148
H8       H     0.637333294860121    0.823591536363675    0.264943168358852
C1       C     0.075666046144115    0.178574482740013    0.127885522837820
C2       C     0.424333846617279    0.321425517259987    0.627885522837820
C3       C     0.075666046144115   -0.178574482740013   -0.127885522837820
C4       C     0.424333846617279    0.678574482740015    0.372114477162180
C5       C     0.575666046144115    0.321425517259987    0.627885522837820
C6       C    -0.075666153382721   -0.178574482740013   -0.127885522837820
C7       C     0.575666046144115    0.678574482740015    0.372114477162180
C8       C    -0.075666153382721    0.178574482740013    0.127885522837820
N1       N     0.152461324785484    0.000000000000000    0.000000000000000
N2       N     0.347538567975910    0.500000000000000    0.500000000000000
N3       N     0.652461324785484    0.500000000000000    0.500000000000000
N4       N    -0.152461432024090   -0.000000000000000   -0.000000000000000
