data_image0
_chemical_formula_structural       N4C8H8
_chemical_formula_sum              "N4 C8 H8"
_cell_length_a       9.325
_cell_length_b       5.85
_cell_length_c       3.733
_cell_angle_alpha    90.0
_cell_angle_beta     90.0
_cell_angle_gamma    90.0

_space_group_name_H-M_alt    "P 1"
_space_group_IT_number       1

loop_
  _space_group_symop_operation_xyz
  'x, y, z'

loop_
  _atom_site_type_symbol
  _atom_site_label
  _atom_site_symmetry_multiplicity
  _atom_site_fract_x
  _atom_site_fract_y
  _atom_site_fract_z
  _atom_site_occupancy
  N   N1        1.0  0.1509060641127028  7.037701380827447e-08  0.9999999230466712  1.0000
  N   N2        1.0  0.8493287296284003  0.999999817886144  0.999999892532598  1.0000
  N   N3        1.0  0.6506709928568717  0.4999999091129774  0.5000001096107181  1.0000
  N   N4        1.0  0.349094164610536  0.5000002083596001  0.5000000382737043  1.0000
  C   C1        1.0  0.0750604720671104  0.17797897030190477  0.12532811630343124  1.0000
  C   C2        1.0  0.9251718550467374  0.17804891880760526  0.12500968910947283  1.0000
  C   C3        1.0  0.5748287419887919  0.32195110059795085  0.6250095776263264  1.0000
  C   C4        1.0  0.424938984442727  0.3220207364491355  0.6253284137284205  1.0000
  C   C5        1.0  0.9251718359128219  0.8219511544195445  0.8749904748851154  1.0000
  C   C6        1.0  0.07506039603826656  0.8220208089538977  0.8746716588786393  1.0000
  C   C7        1.0  0.4249389340079662  0.6779791231422951  0.37467172443388685  1.0000
  C   C8        1.0  0.5748287144450497  0.6780491022101464  0.3749901910282375  1.0000
  H   H1        1.0  0.13613905920501723  0.3227076144168068  0.23106658759841459  1.0000
  H   H2        1.0  0.8640691050292272  0.32296699899799014  0.22999186349678122  1.0000
  H   H3        1.0  0.6359309175524289  0.17703305495914337  0.7299918562344673  1.0000
  H   H4        1.0  0.36386101551822014  0.17729258378960677  0.7310663240096492  1.0000
  H   H5        1.0  0.8640689457325469  0.677032826622181  0.7700080878051742  1.0000
  H   H6        1.0  0.1361391808892089  0.6772924942623687  0.7689336920718154  1.0000
  H   H7        1.0  0.3638610566055089  0.8227075330196738  0.26893359462870403  1.0000
  H   H8        1.0  0.6359308357724209  0.8229669545412671  0.2700082239686884  1.0000
