data_cif

_audit_creation_method             'generated by GULP'

_symmetry_space_group_name_H-M     'P 1             '
_symmetry_Int_Tables_number        1
_symmetry_cell_setting             Triclinic   

_cell_length_a                       8.350518
_cell_length_b                       6.567102
_cell_length_c                       4.073267
_cell_angle_alpha                   75.977702
_cell_angle_beta                    73.975470
_cell_angle_gamma                   94.193066

loop_
_atom_site_label
_atom_site_fract_x
_atom_site_fract_y
_atom_site_fract_z
_atom_site_occupancy
  N1          0.14994      0.00000      0.00000  1.0000
  N1          0.34299      0.52816      0.31198  1.0000
  N1          0.84298      0.02815      0.81201  1.0000
  N1          0.64994      0.49999      0.49999  1.0000
  C3          0.07369      0.17632      0.98054  1.0000
  C3          0.07000      0.83770      0.92515  1.0000
  C3          0.42293      0.69045      0.38687  1.0000
  C3          0.41924      0.35183      0.33142  1.0000
  C3          0.91924      0.85182      0.83147  1.0000
  C3          0.92292      0.19044      0.88686  1.0000
  C3          0.57001      0.33770      0.42511  1.0000
  C3          0.57369      0.67631      0.48055  1.0000
  H2          0.13429      0.30931      0.04000  1.0000
  H2          0.12724      0.69347      0.94047  1.0000
  H2          0.36569      0.83467      0.37156  1.0000
  H2          0.35865      0.21885      0.27193  1.0000
  H2          0.85864      0.71884      0.77201  1.0000
  H2          0.86569      0.33467      0.87154  1.0000
  H2          0.62724      0.19347      0.44041  1.0000
  H2          0.63429      0.80929      0.54004  1.0000
