data_image0
_chemical_formula_structural       N4C8H8
_chemical_formula_sum              "N4 C8 H8"
_cell_length_a       9.0323936345282
_cell_length_b       5.859912538063932
_cell_length_c       3.872730738568932
_cell_angle_alpha    90.0061552156984
_cell_angle_beta     89.95368853616718
_cell_angle_gamma    89.93785979659276

_space_group_name_H-M_alt    "P 1"
_space_group_IT_number       1

loop_
  _space_group_symop_operation_xyz
  'x, y, z'

loop_
  _atom_site_type_symbol
  _atom_site_label
  _atom_site_symmetry_multiplicity
  _atom_site_fract_x
  _atom_site_fract_y
  _atom_site_fract_z
  _atom_site_occupancy
  N   N1        1.0  0.1548346794882838  0.9999768951756266  0.9985305263643448  1.0000
  N   N2        1.0  0.8451469180354073  1.3512722778906052e-05  0.00280177351472423  1.0000
  N   N3        1.0  0.6548542025411284  0.49996689971360886  0.500707147453054  1.0000
  N   N4        1.0  0.34514548974746  0.49995741184910775  0.4981217029970926  1.0000
  C   C1        1.0  0.0773152662779978  0.17527707630115574  0.1268635315639099  1.0000
  C   C2        1.0  0.9230043352572657  0.1753124380742296  0.12886660510169173  1.0000
  C   C3        1.0  0.577045716398499  0.3248245350217654  0.6274936104213129  1.0000
  C   C4        1.0  0.42274719655342874  0.3247624942555172  0.625966397081679  1.0000
  C   C5        1.0  0.9226553070702773  0.8247730154389926  0.8743609745518945  1.0000
  C   C6        1.0  0.0769603265217335  0.8247770114792308  0.8722872513672492  1.0000
  C   C7        1.0  0.42296761224015783  0.6751856726220593  0.3715280062776996  1.0000
  C   C8        1.0  0.5772585447494253  0.6751839103590858  0.3727061365855697  1.0000
  H   H1        1.0  0.141393663708589  0.31845170663941674  0.23344676872881726  1.0000
  H   H2        1.0  0.8591927013850488  0.31851979560282284  0.23687957642393664  1.0000
  H   H3        1.0  0.640788288629749  0.18165310693665646  0.7356662857006891  1.0000
  H   H4        1.0  0.35884629496211146  0.18149863112260042  0.7328482305812107  1.0000
  H   H5        1.0  0.8586941117931802  0.6815238762080469  0.7677440125581612  1.0000
  H   H6        1.0  0.14074341655060696  0.6815708307302071  0.7639119495264189  1.0000
  H   H7        1.0  0.3591773848190171  0.8183838944563915  0.2636380888466827  1.0000
  H   H8        1.0  0.6412298364807396  0.8183876645907219  0.2656327409283925  1.0000
