data_PYRAZI01.b3lyp.6-311G**.dma4.-56.4278.1.3637
_audit_creation_method 'generated by cspy2.0'
_cell_length_a 9.3827
_cell_length_b 5.3489
_cell_length_c 3.8862
_cell_angle_alpha 90.1522
_cell_angle_beta 90.0
_cell_angle_gamma 90.0
loop_
_symmetry_equiv_pos_site_id
_symmetry_equiv_pos_as_xyz
1 +x,+y,+z
loop_
_atom_site_label
_atom_site_type_symbol
_atom_site_fract_x
_atom_site_fract_y
_atom_site_fract_z
_atom_site_occupancy
N1 N       0.149016400000       0.000000000000      -0.000000000000       1.000000000000
N2 N      -0.149016400000      -0.000000000000       0.000000000000       1.000000000000
N3 N       0.350983600000       0.499608360000       0.510319070000       1.000000000000
N4 N       0.649016400000       0.499608360000       0.510319070000       1.000000000000
C1 C       0.073961580000       0.181763210000       0.149534930000       1.000000000000
C2 C      -0.073961580000      -0.181763210000      -0.149534930000       1.000000000000
C3 C      -0.073961580000       0.181763210000       0.149534930000       1.000000000000
C4 C       0.073961580000      -0.181763210000      -0.149534930000       1.000000000000
C5 C       0.426038420000       0.317423800000       0.657544120000       1.000000000000
C6 C       0.426038420000       0.681792920000       0.363094020000       1.000000000000
C7 C       0.573961580000       0.317423800000       0.657544120000       1.000000000000
C8 C       0.573961580000       0.681792920000       0.363094020000       1.000000000000
H1 H       0.127211550000       0.313808890000       0.243987510000       1.000000000000
H2 H      -0.127211550000      -0.313808890000      -0.243987510000       1.000000000000
H3 H      -0.127211550000       0.313808890000       0.243987510000       1.000000000000
H4 H       0.127211550000      -0.313808890000      -0.243987510000       1.000000000000
H5 H       0.372788450000       0.185112290000       0.750318920000       1.000000000000
H6 H       0.372788450000       0.814104440000       0.270319220000       1.000000000000
H7 H       0.627211550000       0.185112290000       0.750318920000       1.000000000000
H8 H       0.627211550000       0.814104440000       0.270319220000       1.000000000000
#END