data_PUBMUU02.b3lyp.6-311G**.dma4.-351.3199.1.8074
_audit_creation_method 'generated by cspy2.0'
_cell_length_a 12.2574
_cell_length_b 10.1094
_cell_length_c 16.5656
_cell_angle_alpha 90.0
_cell_angle_beta 128.32900000000004
_cell_angle_gamma 90.0
loop_
_symmetry_equiv_pos_site_id
_symmetry_equiv_pos_as_xyz
1 +x,+y,+z
loop_
_atom_site_label
_atom_site_type_symbol
_atom_site_fract_x
_atom_site_fract_y
_atom_site_fract_z
_atom_site_occupancy
C1 C       0.464801820000       0.666327310000       0.847876900000       1.000000000000
C2 C       0.326371470000       0.627103940000       0.668886280000       1.000000000000
C3 C       0.519843860000       0.472508410000       0.730013150000       1.000000000000
C4 C       0.590294820000       0.567424820000       0.888959530000       1.000000000000
C5 C       0.618185540000       0.593741560000       0.757912340000       1.000000000000
C6 C       0.426619210000       0.747497400000       0.698535640000       1.000000000000
C7 C       0.458668580000       0.403942350000       0.177510850000       1.000000000000
C8 C       0.605088850000       0.433878500000       0.357860260000       1.000000000000
C9 C       0.417435270000       0.591094350000       0.306500460000       1.000000000000
C10 C       0.336826500000       0.504622870000       0.142681710000       1.000000000000
C11 C       0.317164170000       0.471183260000       0.277412020000       1.000000000000
C12 C       0.502880850000       0.314895350000       0.327065400000       1.000000000000
C13 C       0.965588110000       0.166327310000       0.678641010000       1.000000000000
C14 C       1.104018470000       0.127103930000       0.857631620000       1.000000000000
C15 C       0.910546080000      -0.027491590000       0.796504760000       1.000000000000
C16 C       0.840095110000       0.067424830000       0.637558370000       1.000000000000
C17 C       0.812204390000       0.093741550000       0.768605580000       1.000000000000
C18 C       1.003770730000       0.247497390000       0.827982270000       1.000000000000
C19 C       0.971721350000       0.903942350000       0.349007060000       1.000000000000
C20 C       0.825301070000       0.933878500000       0.168657640000       1.000000000000
C21 C       1.012954670000       1.091094350000       0.220017440000       1.000000000000
C22 C       1.093563430000       1.004622860000       0.383836190000       1.000000000000
C23 C       1.113225760000       0.971183260000       0.249105880000       1.000000000000
C24 C       0.927509080000       0.814895350000       0.199452500000       1.000000000000
H1 H       0.463825720000       0.689420670000       0.902197720000       1.000000000000
H2 H       0.230247370000       0.641403510000       0.606180960000       1.000000000000
H3 H       0.543177670000       0.398936370000       0.708686390000       1.000000000000
H4 H       0.640149430000       0.548953130000       0.959091230000       1.000000000000
H5 H       0.685307710000       0.578347750000       0.749136320000       1.000000000000
H6 H       0.380484460000       0.819644730000       0.655547110000       1.000000000000
H7 H       0.455678450000       0.383798850000       0.120962440000       1.000000000000
H8 H       0.701906310000       0.416483430000       0.418541910000       1.000000000000
H9 H       0.397970450000       0.663390950000       0.331498750000       1.000000000000
H10 H       0.284573910000       0.526718670000       0.072924870000       1.000000000000
H11 H       0.252937220000       0.485900600000       0.289195500000       1.000000000000
H12 H       0.548482910000       0.240619920000       0.367393620000       1.000000000000
H13 H       0.966564200000       0.189420680000       0.624320180000       1.000000000000
H14 H       1.200142560000       0.141403510000       0.920336950000       1.000000000000
H15 H       0.887212270000      -0.101063630000       0.817831510000       1.000000000000
H16 H       0.790240510000       0.048953130000       0.567426670000       1.000000000000
H17 H       0.745082230000       0.078347740000       0.777381580000       1.000000000000
H18 H       1.049905470000       0.319644730000       0.870970800000       1.000000000000
H19 H       0.974711470000       0.883798850000       0.405555470000       1.000000000000
H20 H       0.728483620000       0.916483430000       0.107975990000       1.000000000000
H21 H       1.032419480000       1.163390940000       0.195019150000       1.000000000000
H22 H       1.145816020000       1.026718670000       0.453593040000       1.000000000000
H23 H       1.177452700000       0.985900610000       0.237322410000       1.000000000000
H24 H       0.881907020000       0.740619920000       0.159124290000       1.000000000000
N1 N       0.336423110000       0.605409260000       0.760813350000       1.000000000000
N2 N       0.214501880000       0.629932910000       0.752072370000       1.000000000000
N3 N       0.377614290000       0.510867240000       0.651172200000       1.000000000000
N4 N       0.294262770000       0.439882680000       0.560240320000       1.000000000000
N5 N       0.547366600000       0.447326410000       0.828499040000       1.000000000000
N6 N       0.467262100000       0.357084740000       0.832919190000       1.000000000000
N7 N       0.682691170000       0.613267860000       0.867706790000       1.000000000000
N8 N       0.759767290000       0.725613300000       0.918438970000       1.000000000000
N9 N       0.532992460000       0.703006470000       0.692549500000       1.000000000000
N10 N       0.590008370000       0.794388240000       0.663084430000       1.000000000000
N11 N       0.483959630000       0.780952420000       0.804246780000       1.000000000000
N12 N       0.447881220000       0.905479080000       0.821522940000       1.000000000000
N13 N       0.590213290000       0.460482870000       0.264460410000       1.000000000000
N14 N       0.708485320000       0.435854600000       0.268515330000       1.000000000000
N15 N       0.559393430000       0.548920700000       0.381431880000       1.000000000000
N16 N       0.647722000000       0.615182990000       0.474204390000       1.000000000000
N17 N       0.385283580000       0.621487120000       0.207068550000       1.000000000000
N18 N       0.465069030000       0.712122180000       0.202615210000       1.000000000000
N19 N       0.247276110000       0.457408240000       0.166229760000       1.000000000000
N20 N       0.166466690000       0.347669130000       0.113241530000       1.000000000000
N21 N       0.401118440000       0.358725100000       0.338230380000       1.000000000000
N22 N       0.345262220000       0.265666370000       0.367584960000       1.000000000000
N23 N       0.439846040000       0.287003110000       0.219397890000       1.000000000000
N24 N       0.470636530000       0.163610850000       0.196534250000       1.000000000000
N25 N       1.093966830000       0.105409270000       0.765704560000       1.000000000000
N26 N       1.215888050000       0.129932920000       0.774445540000       1.000000000000
N27 N       1.052775650000       0.010867230000       0.875345690000       1.000000000000
N28 N       1.136127170000      -0.060117330000       0.966277590000       1.000000000000
N29 N       0.883023340000      -0.052673590000       0.698018860000       1.000000000000
N30 N       0.963127830000      -0.142915260000       0.693598710000       1.000000000000
N31 N       0.747698770000       0.113267860000       0.658811120000       1.000000000000
N32 N       0.670622640000       0.225613290000       0.608078930000       1.000000000000
N33 N       0.897397470000       0.203006460000       0.833968410000       1.000000000000
N34 N       0.840381570000       0.294388230000       0.863433470000       1.000000000000
N35 N       0.946430310000       0.280952420000       0.722271120000       1.000000000000
N36 N       0.982508700000       0.405479080000       0.704994970000       1.000000000000
N37 N       0.840176640000       0.960482860000       0.262057500000       1.000000000000
N38 N       0.721904610000       0.935854600000       0.258002570000       1.000000000000
N39 N       0.870996500000       1.048920700000       0.145086020000       1.000000000000
N40 N       0.782667910000       1.115182980000       0.052313510000       1.000000000000
N41 N       1.045106340000       1.121487130000       0.319449350000       1.000000000000
N42 N       0.965320910000       1.212122180000       0.323902690000       1.000000000000
N43 N       1.183113820000       0.957408240000       0.360288140000       1.000000000000
N44 N       1.263923230000       0.847669120000       0.413276370000       1.000000000000
N45 N       1.029271490000       0.858725100000       0.188287520000       1.000000000000
N46 N       1.085127700000       0.765666370000       0.158932940000       1.000000000000
N47 N       0.990543890000       0.787003100000       0.307120010000       1.000000000000
N48 N       0.959753410000       0.663610850000       0.329983650000       1.000000000000
O1 O       0.104882370000       0.629467670000       0.666324370000       1.000000000000
O2 O       0.233540460000       0.641345040000       0.832675270000       1.000000000000
O3 O       0.341401760000       0.337106970000       0.555386480000       1.000000000000
O4 O       0.182736470000       0.487421820000       0.493266620000       1.000000000000
O5 O       0.412863080000       0.271303620000       0.767558570000       1.000000000000
O6 O       0.461352850000       0.369251220000       0.903429880000       1.000000000000
O7 O       0.801486760000       0.787323100000       0.879447860000       1.000000000000
O8 O       0.781335170000       0.750591190000       0.999008420000       1.000000000000
O9 O       0.541265290000       0.904579000000       0.641706090000       1.000000000000
O10 O       0.678863550000       0.752046370000       0.659324940000       1.000000000000
O11 O       0.422873260000       0.992383070000       0.762203990000       1.000000000000
O12 O       0.451746470000       0.913678420000       0.896003660000       1.000000000000
O13 O       0.820200390000       0.432008610000       0.352865480000       1.000000000000
O14 O       0.684741840000       0.428742830000       0.186019310000       1.000000000000
O15 O       0.604874860000       0.717480060000       0.484006720000       1.000000000000
O16 O       0.758909100000       0.564388870000       0.537706970000       1.000000000000
O17 O       0.524090810000       0.794465270000       0.270572280000       1.000000000000
O18 O       0.466147250000       0.703783550000       0.129610880000       1.000000000000
O19 O       0.126802000000       0.283788390000       0.152785530000       1.000000000000
O20 O       0.139924850000       0.326993540000       0.030442490000       1.000000000000
O21 O       0.391095820000       0.154550620000       0.384439950000       1.000000000000
O22 O       0.260313740000       0.307518640000       0.375798450000       1.000000000000
O23 O       0.496361290000       0.073650180000       0.253895310000       1.000000000000
O24 O       0.462082080000       0.159422400000       0.119909400000       1.000000000000
O25 O       1.325507560000       0.129467680000       0.860193530000       1.000000000000
O26 O       1.196849480000       0.141345050000       0.693842630000       1.000000000000
O27 O       1.088988190000      -0.162893040000       0.971131420000       1.000000000000
O28 O       1.247653460000      -0.012578190000       1.033251290000       1.000000000000
O29 O       1.017526850000      -0.228696380000       0.758959340000       1.000000000000
O30 O       0.969037100000      -0.130748760000       0.623088030000       1.000000000000
O31 O       0.628903170000       0.287323100000       0.647070050000       1.000000000000
O32 O       0.649054760000       0.250591190000       0.527509490000       1.000000000000
O33 O       0.889124640000       0.404578980000       0.884811810000       1.000000000000
O34 O       0.751526390000       0.252046350000       0.867192960000       1.000000000000
O35 O       1.007516660000       0.492383070000       0.764313900000       1.000000000000
O36 O       0.978643450000       0.413678430000       0.630514240000       1.000000000000
O37 O       0.610189540000       0.932008610000       0.173652410000       1.000000000000
O38 O       0.745648090000       0.928742820000       0.340498580000       1.000000000000
O39 O       0.825515070000       1.217480050000       0.042511190000       1.000000000000
O40 O       0.671480830000       1.064388870000      -0.011189060000       1.000000000000
O41 O       0.906299110000       1.294465260000       0.255945620000       1.000000000000
O42 O       0.964242660000       1.203783540000       0.396907010000       1.000000000000
O43 O       1.303587920000       0.783788390000       0.373732380000       1.000000000000
O44 O       1.290465090000       0.826993530000       0.496075410000       1.000000000000
O45 O       1.039294110000       0.654550620000       0.142077960000       1.000000000000
O46 O       1.170076190000       0.807518640000       0.150719440000       1.000000000000
O47 O       0.934028640000       0.573650170000       0.272622590000       1.000000000000
O48 O       0.968307860000       0.659422390000       0.406608500000       1.000000000000
#END