data_image0
_chemical_formula_structural       C4H4N8O8C4H4N8O8C4H4N8O8C4H4N8O8C4H4N8O8C4H4N8O8
_chemical_formula_sum              "C24 H24 N48 O48"
_cell_length_a       8.94492088236265
_cell_length_b       12.869855772045796
_cell_length_c       13.638435522331758
_cell_angle_alpha    89.99539072316082
_cell_angle_beta     107.27821006948689
_cell_angle_gamma    89.94579708409371

_space_group_name_H-M_alt    "P 1"
_space_group_IT_number       1

loop_
  _space_group_symop_operation_xyz
  'x, y, z'

loop_
  _atom_site_type_symbol
  _atom_site_label
  _atom_site_symmetry_multiplicity
  _atom_site_fract_x
  _atom_site_fract_y
  _atom_site_fract_z
  _atom_site_occupancy
  C   C1        1.0  0.4354042883768975  0.6400892049854593  0.8597569874399221  1.0000
  C   C2        1.0  0.06431758744500249  0.14028229769913889  0.6398804131522047  1.0000
  C   C3        1.0  0.5643483654484924  0.35989397784240157  0.1403046529176322  1.0000
  C   C4        1.0  0.9357098777295192  0.8597901124739041  0.35972043808164234  1.0000
  H   H1        1.0  0.4087638609621624  0.6473567298506309  0.9331284930275444  1.0000
  H   H2        1.0  0.09071816567239312  0.14763525191469148  0.566407275482543  1.0000
  H   H3        1.0  0.5908953914034877  0.35276558354003745  0.06687072837083928  1.0000
  H   H4        1.0  0.9090963074902327  0.8525547594352615  0.4331035185232044  1.0000
  N   N1        1.0  0.3023821217849347  0.6026433300022487  0.7776996806151486  1.0000
  N   N2        1.0  0.19750279052377587  0.10285010156064171  0.7218250314835504  1.0000
  N   N3        1.0  0.6971693511176144  0.39746667383043083  0.22233264135585096  1.0000
  N   N4        1.0  0.8026381297387458  0.8974212112141482  0.2777336864126621  1.0000
  N   N5        1.0  0.15185864733021964  0.6088787340287631  0.7932121490240531  1.0000
  N   N6        1.0  0.34809623411499013  0.10933442518267884  0.7063792742152942  1.0000
  N   N7        1.0  0.8478822245516429  0.3911152780338763  0.20701561860260795  1.0000
  N   N8        1.0  0.6522136475913773  0.8909492780406953  0.29339419259150407  1.0000
  O   O1        1.0  0.041134923410166  0.6170567650577563  0.7164839852534052  1.0000
  O   O2        1.0  0.4587991802701658  0.11683573387818375  0.7831846158987755  1.0000
  O   O3        1.0  0.9585043730847741  0.38322497006403416  0.2838313700263738  1.0000
  O   O4        1.0  0.5413917250729611  0.8830693959358491  0.21671088822382  1.0000
  O   O5        1.0  0.15113633442385782  0.6000959643094682  0.8819616650140061  1.0000
  O   O6        1.0  0.34887713245081625  0.1013328026259736  0.6175781945320337  1.0000
  O   O7        1.0  0.8487802094822735  0.3996377354379175  0.11827822892396492  1.0000
  O   O8        1.0  0.6516709672227247  0.8993412533057789  0.3822102197605433  1.0000
  C   C5        1.0  0.31974628120720516  0.6374967063110138  0.6795974368956901  1.0000
  C   C6        1.0  0.1802509856673517  0.13769048846838464  0.8199504743278434  1.0000
  C   C7        1.0  0.6799006172093353  0.36249303128178634  0.32043619413515306  1.0000
  C   C8        1.0  0.8198488000110294  0.8624788013947786  0.17960321036330423  1.0000
  H   H5        1.0  0.2055398010510335  0.6582216750572496  0.6254347202741843  1.0000
  H   H6        1.0  0.29446808159269683  0.15834102996049998  0.8740617620314499  1.0000
  H   H7        1.0  0.794207935385359  0.34202568709556214  0.3746104535755403  1.0000
  H   H8        1.0  0.7055785899310925  0.8419487107559942  0.1255270722564477  1.0000
  N   N9        1.0  0.3922705823409537  0.5579032994360543  0.6356355987404142  1.0000
  N   N10       1.0  0.10812394091878778  0.05804454360979865  0.8640143755146971  1.0000
  N   N11       1.0  0.6072204761560259  0.4419790748776917  0.3643928179721616  1.0000
  N   N12       1.0  0.89226626283597  0.9420523209547418  0.13561656122034757  1.0000
  N   N13       1.0  0.31313286755910624  0.5116141689605478  0.5420762362290581  1.0000
  N   N14       1.0  0.18747014651233512  0.012178517357091394  0.9578039841052803  1.0000
  N   N15       1.0  0.6865986492326899  0.48841644552848024  0.4578906985539395  1.0000
  N   N16       1.0  0.813001151327011  0.9884557559225102  0.04206801687448837  1.0000
  O   O9        1.0  0.37966781297693536  0.43932223985168145  0.5146013807982546  1.0000
  O   O10       1.0  0.12118040124198459  0.9401283725473227  0.9857493417611497  1.0000
  O   O11       1.0  0.619784832178749  0.5604114206500483  0.4855991468185653  1.0000
  O   O12       1.0  0.8797147910460434  0.060503061222146715  0.014471962731632345  1.0000
  O   O13       1.0  0.18715291592707073  0.5495107771171948  0.4960974076865482  1.0000
  O   O14       1.0  0.313335644177312  0.05019900939803989  0.0035060324258873905  1.0000
  O   O15       1.0  0.8129229789865475  0.4508428594824669  0.5035736817938686  1.0000
  O   O16       1.0  0.6867733657550348  0.9509268193852295  0.9962613817334274  1.0000
  C   C9        1.0  0.5445695453221336  0.5226872080939649  0.6943240350263472  1.0000
  C   C10       1.0  0.9557175866167951  0.022886981390869032  0.8056261051423389  1.0000
  C   C11       1.0  0.45475521163116606  0.4769755777504356  0.30581207338812305  1.0000
  C   C12       1.0  0.04460259823992233  0.9770174431016831  0.19415499683367382  1.0000
  H   H9        1.0  0.5857145466752063  0.46341006573092974  0.6503828264678118  1.0000
  H   H10       1.0  0.9149080250009523  0.9637035763605419  0.8497805072733743  1.0000
  H   H11       1.0  0.4133850691271835  0.5361841252935983  0.34971810262643993  1.0000
  H   H12       1.0  0.08576313308611426  0.0362468862343476  0.15021558155397005  1.0000
  N   N17       1.0  0.5453555055196027  0.48406203520621205  0.7950786754212467  1.0000
  N   N18       1.0  0.9549382713041608  0.98432194691951  0.7048729425396957  1.0000
  N   N19       1.0  0.4539780063405634  0.5156379260900673  0.20501841537007695  1.0000
  N   N20       1.0  0.04545473942160047  0.015677627188628026  0.2949693465750731  1.0000
  N   N21       1.0  0.4527401116309694  0.4025642115693144  0.8049077673868992  1.0000
  N   N22       1.0  0.0474368305161177  0.9027375597963023  0.6950279742986966  1.0000
  N   N23       1.0  0.546698981565982  0.5970747491116194  0.19537100803570462  1.0000
  N   N24       1.0  0.9526471049507155  0.09709172270352366  0.30480890225633656  1.0000
  O   O17       1.0  0.4052396864763487  0.3456033968218178  0.7305244749074938  1.0000
  O   O18       1.0  0.094637806064924  0.8456496750287964  0.7693915259943532  1.0000
  O   O19       1.0  0.5939014636665519  0.6540097646663338  0.26979865513051765  1.0000
  O   O20       1.0  0.9053034207094092  0.15432078132753047  0.23054608269197427  1.0000
  O   O21       1.0  0.42893653943720655  0.39365764863684255  0.8888105848165992  1.0000
  O   O22       1.0  0.07164208154561177  0.893880374845343  0.6112456451164959  1.0000
  O   O23       1.0  0.5710295810374406  0.6060065591181754  0.11161580096989156  1.0000
  O   O24       1.0  0.92837514008746  0.1056805399902617  0.3886192315313697  1.0000
  C   C13       1.0  0.5816444333738848  0.5655919791496504  0.8711233473349923  1.0000
  C   C14       1.0  0.918152645991753  0.06586071045789456  0.6287749278375541  1.0000
  C   C15       1.0  0.41778046095158317  0.4340643974048708  0.1290086637268642  1.0000
  C   C16       1.0  0.08183137002767077  0.9340654388619071  0.3710328460548688  1.0000
  H   H13       1.0  0.6276624676020068  0.5354487963875789  0.9495649747982836  1.0000
  H   H14       1.0  0.8719518047718641  0.03581568846713757  0.5503188133660778  1.0000
  H   H15       1.0  0.37140244443365095  0.4641812750994266  0.0505660928235786  1.0000
  H   H16       1.0  0.1280457991847694  0.9641771886145434  0.4494591938114933  1.0000
  N   N25       1.0  0.7013604389995062  0.6165852188012572  0.8366179188882906  1.0000
  N   N26       1.0  0.7984933184045026  0.116956621253522  0.6633887545391824  1.0000
  N   N27       1.0  0.2984194853167  0.3828080647446746  0.16365023035456805  1.0000
  N   N28       1.0  0.2013289224018241  0.8829666246830128  0.33641902790590855  1.0000
  N   N29       1.0  0.7815919298616424  0.697927825846298  0.8939039538735538  1.0000
  N   N30       1.0  0.7182663375842461  0.198576684610375  0.6062917442998783  1.0000
  N   N31       1.0  0.21748758448307964  0.3016732411937523  0.10628141302643493  1.0000
  N   N32       1.0  0.28289163993772076  0.8020844189801385  0.39394374663998527  1.0000
  O   O25       1.0  0.8484268850410887  0.7576088083589967  0.8512772443790148  1.0000
  O   O26       1.0  0.6514496371168692  0.25809707997255776  0.649151582872836  1.0000
  O   O27       1.0  0.15064315896771863  0.24220930864909734  0.1490860130641566  1.0000
  O   O28       1.0  0.3504765153844674  0.7428032984047  0.35138256563932185  1.0000
  O   O29       1.0  0.7792730422667591  0.7012422558085495  0.9834367962069375  1.0000
  O   O30       1.0  0.7206103913269931  0.2021750375865751  0.5167778693590154  1.0000
  O   O31       1.0  0.21940714116548862  0.29845306005331657  0.01667604916635877  1.0000
  O   O32       1.0  0.2809170835390845  0.7988109492971821  0.4835385783873188  1.0000
  C   C17       1.0  0.6582368475587764  0.6191870310499633  0.72393274322342  1.0000
  C   C18       1.0  0.8418172591192301  0.11943642775652168  0.7760759013595109  1.0000
  C   C19       1.0  0.3414670758326446  0.3802990212675588  0.2762589425839362  1.0000
  C   C20       1.0  0.15835830886913138  0.8804096891603871  0.22382671394014042  1.0000
  H   H17       1.0  0.7624046784887303  0.6122173200448621  0.6970837976429651  1.0000
  H   H18       1.0  0.7379073230730689  0.11255307744843919  0.8031913903525053  1.0000
  H   H19       1.0  0.23743503473142144  0.3871758491258936  0.30326275060191343  1.0000
  H   H20       1.0  0.2625251714104057  0.8872633351025488  0.19698338850856484  1.0000
  N   N33       1.0  0.5724433594609013  0.711029178238916  0.6811310886648381  1.0000
  N   N34       1.0  0.9275756775327276  0.21124152652013925  0.8187064236314074  1.0000
  N   N35       1.0  0.4275736955478239  0.2885881060688098  0.31903435339873565  1.0000
  N   N36       1.0  0.0725870069222519  0.7887130376197937  0.1810230289371236  1.0000
  N   N37       1.0  0.6498663937304802  0.7923686408918318  0.6465816922171752  1.0000
  N   N38       1.0  0.8503014765108656  0.2926118886981744  0.8534058651227386  1.0000
  N   N39       1.0  0.3509683993547058  0.2073623324506923  0.3543891447623511  1.0000
  N   N40       1.0  0.14967306257482388  0.7075262372578534  0.1459794593182129  1.0000
  O   O33       1.0  0.5873610149934188  0.8775535134867918  0.6383983522773546  1.0000
  O   O34       1.0  0.9128405550251253  0.37768902441277136  0.8616284416388101  1.0000
  O   O35       1.0  0.4143598645555484  0.12246891992686203  0.3635319498993316  1.0000
  O   O36       1.0  0.08671338714738683  0.6225554430149491  0.1369998979902686  1.0000
  O   O37       1.0  0.7685930715561172  0.7686382530806468  0.6259610857158178  1.0000
  O   O38       1.0  0.7318289423773924  0.2689589775533604  0.8743267848933851  1.0000
  O   O39       1.0  0.23208284989952366  0.23098165167569967  0.37486062815513643  1.0000
  O   O40       1.0  0.26870852619023106  0.7312181670999448  0.1257630844510148  1.0000
  C   C21       1.0  0.4348553450440162  0.7337098834899018  0.7103306355584575  1.0000
  C   C22       1.0  0.06484157466365183  0.23390825477723443  0.7892614594209356  1.0000
  C   C23       1.0  0.5649864364357986  0.26609852727521954  0.28965179878773323  1.0000
  C   C24       1.0  0.9351017161333431  0.7661130595661305  0.2103465070763213  1.0000
  H   H21       1.0  0.38140298022646424  0.8062381260890386  0.6735380994400849  1.0000
  H   H22       1.0  0.11806435510970507  0.30648341627261855  0.8258880005064454  1.0000
  H   H23       1.0  0.6185518010163553  0.19357170055351725  0.32640327476769526  1.0000
  H   H24       1.0  0.8816345362145983  0.693631046497751  0.1735959872734105  1.0000
  N   N41       1.0  0.4684888995709366  0.7400420937664476  0.8219248423277974  1.0000
  N   N42       1.0  0.031003888521693848  0.24022617842462965  0.6776265309814851  1.0000
  N   N43       1.0  0.531483326478298  0.2598225672055835  0.1780527755236121  1.0000
  N   N44       1.0  0.9688880541380221  0.7597995184956713  0.32193872187414907  1.0000
  N   N45       1.0  0.4223003869904693  0.8306005832491881  0.8644194033370924  1.0000
  N   N46       1.0  0.07747691054871203  0.330694793700976  0.635230183583561  1.0000
  N   N47       1.0  0.5780087969734338  0.16936277457245671  0.1356503527442439  1.0000
  N   N48       1.0  0.9223063886900587  0.6693900065899079  0.3644079155894173  1.0000
  O   O41       1.0  0.4087512956864937  0.9086740144190177  0.8122324994811615  1.0000
  O   O42       1.0  0.09081502705353128  0.40876168853441447  0.6873576280581793  1.0000
  O   O43       1.0  0.590863634511602  0.09117445161428613  0.18761141864418474  1.0000
  O   O44       1.0  0.9089814111413341  0.591238170644786  0.31239410968594067  1.0000
  O   O45       1.0  0.4078516074379677  0.8213123324864158  0.9497230463157744  1.0000
  O   O46       1.0  0.09222833940207201  0.32134759737015006  0.549998470277774  1.0000
  O   O47       1.0  0.5933047116906071  0.17885827810224122  0.050599633229590484  1.0000
  O   O48       1.0  0.907482402668816  0.6788240077625395  0.44959889661221003  1.0000
