data_image0
_chemical_formula_structural       C4H4N8O8C4H4N8O8C4H4N8O8C4H4N8O8C4H4N8O8C4H4N8O8
_chemical_formula_sum              "C24 H24 N48 O48"
_cell_length_a       8.852
_cell_length_b       12.556
_cell_length_c       13.386
_cell_angle_alpha    90.0
_cell_angle_beta     106.82
_cell_angle_gamma    90.0

_space_group_name_H-M_alt    "P 1"
_space_group_IT_number       1

loop_
  _space_group_symop_operation_xyz
  'x, y, z'

loop_
  _atom_site_type_symbol
  _atom_site_label
  _atom_site_symmetry_multiplicity
  _atom_site_fract_x
  _atom_site_fract_y
  _atom_site_fract_z
  _atom_site_occupancy
  C   C1        1.0  0.43514248346528395  0.6370761295546314  0.8686111832126687  1.0000
  C   C2        1.0  0.06485749699464326  0.13707612481502224  0.6313888051188863  1.0000
  C   C3        1.0  0.5645602735435606  0.36292205926732185  0.13146374043062425  1.0000
  C   C4        1.0  0.9354397203434875  0.8629220233750762  0.3685362372458361  1.0000
  H   H1        1.0  0.40992308964032936  0.6417747942741028  0.9436379025757752  1.0000
  H   H2        1.0  0.09007695970587623  0.1417748259396898  0.5563620708206763  1.0000
  H   H3        1.0  0.5895813044443815  0.3579241864836488  0.056393077257381664  1.0000
  H   H4        1.0  0.9104186684405394  0.857924152704352  0.4436069450226993  1.0000
  N   N1        1.0  0.30016843054801373  0.5988362297694161  0.7853113120918419  1.0000
  N   N2        1.0  0.19983154805800007  0.09883620029613047  0.7146886895817898  1.0000
  N   N3        1.0  0.699453761057836  0.4015954751670666  0.21459326784576138  1.0000
  N   N4        1.0  0.8005462170750739  0.9015955059194648  0.2854067381779699  1.0000
  N   N5        1.0  0.14810874682411254  0.6022901461745301  0.8034299676410078  1.0000
  N   N6        1.0  0.35189129103832467  0.10229013522808517  0.6965700027932734  1.0000
  N   N7        1.0  0.851485701791127  0.3977951869505833  0.19619068958589897  1.0000
  N   N8        1.0  0.6485142407844685  0.8977951936425718  0.3038093030986576  1.0000
  O   O1        1.0  0.034092312775158284  0.6122392912433563  0.7261991491011863  1.0000
  O   O2        1.0  0.46590768081974243  0.11223926366355964  0.7738008405047248  1.0000
  O   O3        1.0  0.965567983161713  0.3868884678347362  0.27324284558654055  1.0000
  O   O4        1.0  0.5344320128974079  0.886888473395703  0.22675716485462058  1.0000
  O   O5        1.0  0.1485874042055914  0.5898543513230585  0.8947128364974393  1.0000
  O   O6        1.0  0.351412647422401  0.08985441145053846  0.6052872664914816  1.0000
  O   O7        1.0  0.8508329287340773  0.41108372338531374  0.10499026864797747  1.0000
  O   O8        1.0  0.6491670772597775  0.9110837187426606  0.3950097418051063  1.0000
  C   C5        1.0  0.3158143751047166  0.638149995577764  0.68529987541201  1.0000
  C   C6        1.0  0.18418571455749747  0.13815006230427765  0.8147001512960249  1.0000
  C   C7        1.0  0.6841471303582268  0.36219115549748826  0.3147316888706998  1.0000
  C   C8        1.0  0.8158528315092299  0.8621911350646785  0.18526828021543562  1.0000
  H   H5        1.0  0.20084182023219477  0.6597196029767287  0.6319701346810684  1.0000
  H   H6        1.0  0.29915816135228807  0.1597195916042692  0.8680299167029688  1.0000
  H   H7        1.0  0.7992025193067286  0.3406575948749579  0.3680325845897529  1.0000
  H   H8        1.0  0.7007974607900119  0.8406576103962434  0.13196739632603946  1.0000
  N   N9        1.0  0.3892454671510427  0.5574840438066333  0.6377567374485898  1.0000
  N   N10       1.0  0.11075451660082813  0.05748402496603689  0.8622432508604876  1.0000
  N   N11       1.0  0.6105822946204998  0.44289960532569816  0.36219276960421726  1.0000
  N   N12       1.0  0.8894176708620822  0.9428995909731787  0.13780720542023103  1.0000
  N   N13       1.0  0.3125811882349258  0.515581036587784  0.5386962649687616  1.0000
  N   N14       1.0  0.18741891131191613  0.015581106995630038  0.9613037529339514  1.0000
  N   N15       1.0  0.6869240342348014  0.48491426685055755  0.4612463966224564  1.0000
  N   N16       1.0  0.8130758887688362  0.9849141500546257  0.038753601069763194  1.0000
  O   O9        1.0  0.3758061866913838  0.4383974952613328  0.5103822336690502  1.0000
  O   O10       1.0  0.12419380151198996  0.9383974740741843  0.9896177275056667  1.0000
  O   O11       1.0  0.623158227112432  0.5617393767679358  0.48966065210568077  1.0000
  O   O12       1.0  0.8768418425393663  0.061739468961401235  0.010339315450044705  1.0000
  O   O13       1.0  0.19111479505024795  0.5606920261756084  0.4889882975732198  1.0000
  O   O14       1.0  0.30888520084635673  0.06069199059108495  0.011011688817483574  1.0000
  O   O15       1.0  0.808786572359381  0.44022650529427804  0.5108961790498632  1.0000
  O   O16       1.0  0.6912134941445097  0.9402265053854014  0.9891039161345387  1.0000
  C   C9        1.0  0.5452972823867785  0.5219098959077518  0.6943439817944915  1.0000
  C   C10       1.0  0.9547027220196197  0.0219099116902393  0.8056560240162254  1.0000
  C   C11       1.0  0.45428643232853483  0.4781416244166287  0.3056630662117021  1.0000
  C   C12       1.0  0.045713524981887126  0.9781416600874224  0.19433683082537817  1.0000
  H   H9        1.0  0.5861845670570849  0.46328258005964856  0.6477745314570789  1.0000
  H   H10       1.0  0.9138154976877174  0.9632825616142263  0.8522254878775676  1.0000
  H   H11       1.0  0.41321308516143507  0.5366546086139051  0.35225932304842267  1.0000
  H   H12       1.0  0.08678690618056283  0.03665458421266795  0.14774068432917145  1.0000
  N   N17       1.0  0.5500105188715344  0.47902267913886454  0.7974894319500272  1.0000
  N   N18       1.0  0.9499895319223916  0.9790226854232041  0.702510571096683  1.0000
  N   N19       1.0  0.4491843261227824  0.5210281425949194  0.20238870842974907  1.0000
  N   N20       1.0  0.05081568149727381  0.02102812243493642  0.2976112927943785  1.0000
  N   N21       1.0  0.45384021321369983  0.39571597046807416  0.8056660673611689  1.0000
  N   N22       1.0  0.0461597756661941  0.8957159905806222  0.6943339719611057  1.0000
  N   N23       1.0  0.546154927006139  0.6039559308095386  0.19416441116939348  1.0000
  N   N24       1.0  0.9538450870560197  0.10395596877287325  0.3058355511927093  1.0000
  O   O17       1.0  0.40834140162300686  0.3375656944681586  0.7287462076818396  1.0000
  O   O18       1.0  0.09165864237494215  0.8375656446055176  0.7712538096442555  1.0000
  O   O19       1.0  0.5918526410223862  0.662228219075598  0.27094748050030726  1.0000
  O   O20       1.0  0.9081473644713864  0.16222819797091237  0.2290525218714197  1.0000
  O   O21       1.0  0.42348897955585446  0.38579440799417863  0.890102550955806  1.0000
  O   O22       1.0  0.07651110830080034  0.8857943784878989  0.6098974447923413  1.0000
  O   O23       1.0  0.5766573427585757  0.613479852474232  0.10974257552765827  1.0000
  O   O24       1.0  0.9233426937781328  0.11347985566740507  0.3902574156737884  1.0000
  C   C13       1.0  0.5851501991475261  0.5620479308220494  0.8761185829955803  1.0000
  C   C14       1.0  0.9148498539528664  0.06204797689958482  0.623881461568641  1.0000
  C   C15       1.0  0.4143359530308069  0.4377067928394004  0.12389868762833572  1.0000
  C   C16       1.0  0.08566402594503617  0.9377067471591761  0.37610132956739034  1.0000
  H   H13       1.0  0.6340455667449952  0.530491286180725  0.9549206452599864  1.0000
  H   H14       1.0  0.8659545421760486  0.030491298295616656  0.5450793686392961  1.0000
  H   H15       1.0  0.3652386396086644  0.4691697022788797  0.04507877266918908  1.0000
  H   H16       1.0  0.13476134928824274  0.9691696489473846  0.4549212040454217  1.0000
  N   N25       1.0  0.7051349017368546  0.6162109300406273  0.83994389035643  1.0000
  N   N26       1.0  0.7948651712509692  0.1162109876018054  0.6600561116819177  1.0000
  N   N27       1.0  0.2948743372416961  0.3834559084227252  0.1602828313512741  1.0000
  N   N28       1.0  0.2051256816262822  0.8834558609832025  0.33971715744918607  1.0000
  N   N29       1.0  0.7885730282983188  0.6984413674240377  0.8999504241948143  1.0000
  N   N30       1.0  0.7114270429935529  0.19844134790549334  0.6000495447740106  1.0000
  N   N31       1.0  0.21122159109627037  0.3014530246892594  0.10021390018356716  1.0000
  N   N32       1.0  0.28877830185862435  0.8014530769523486  0.3997861323843265  1.0000
  O   O25       1.0  0.8532225938203037  0.7624589783850342  0.8557485737582016  1.0000
  O   O26       1.0  0.6467774492044371  0.26245893379976554  0.6442514236308178  1.0000
  O   O27       1.0  0.1474590174337575  0.23691504243725678  0.14446283049230527  1.0000
  O   O28       1.0  0.35254100401348804  0.7369149682787965  0.3555371284042767  1.0000
  O   O29       1.0  0.7920915861717386  0.6983403436648717  0.9929901752288911  1.0000
  O   O30       1.0  0.7079084620946101  0.19834040224865165  0.5070098550315626  1.0000
  O   O31       1.0  0.2067513960352133  0.30213225533830246  0.006985820962794684  1.0000
  O   O32       1.0  0.2932486009752692  0.8021322273285856  0.49301417261240843  1.0000
  C   C17       1.0  0.6582650880999004  0.6220399757329877  0.724826240885064  1.0000
  C   C18       1.0  0.8417349958419621  0.12204000847233422  0.7751737935554268  1.0000
  C   C19       1.0  0.34167111912849235  0.37782491278755775  0.27540499897027365  1.0000
  C   C20       1.0  0.15832882013185146  0.8778248938995623  0.2245949763446088  1.0000
  H   H17       1.0  0.7605724235373627  0.6166906628964767  0.694864596903915  1.0000
  H   H18       1.0  0.7394276042629326  0.11669065508546829  0.805135405572009  1.0000
  H   H19       1.0  0.23914423335522314  0.38300083107587485  0.30513167771152366  1.0000
  H   H20       1.0  0.26085571205694524  0.8830008206952552  0.19486831871557636  1.0000
  N   N33       1.0  0.5688173111382789  0.7168399257395323  0.6846693437442629  1.0000
  N   N34       1.0  0.9311827522607729  0.21683998991678444  0.8153306530874751  1.0000
  N   N35       1.0  0.43151227396422115  0.2832007694684511  0.3158242478052446  1.0000
  N   N36       1.0  0.06848768227492864  0.7832007083509287  0.18417574546931242  1.0000
  N   N37       1.0  0.6434914156468601  0.8018031241792752  0.6472434521306654  1.0000
  N   N38       1.0  0.8565083897803681  0.301802871648883  0.8527566366670705  1.0000
  N   N39       1.0  0.35673994905977563  0.19808775139006943  0.35294243006122106  1.0000
  N   N40       1.0  0.14326006920877177  0.6980877510827909  0.14705752495857294  1.0000
  O   O33       1.0  0.5848788521536861  0.8907673107843166  0.6466574837847248  1.0000
  O   O34       1.0  0.9151212083622002  0.39076744860095014  0.8533425193902803  1.0000
  O   O35       1.0  0.4159336651919888  0.10924752556266289  0.354003006226027  1.0000
  O   O36       1.0  0.0840662838490713  0.6092474519638358  0.1459970216874776  1.0000
  O   O37       1.0  0.7567120791958248  0.7771920616542428  0.616556415581069  1.0000
  O   O38       1.0  0.7432880870773346  0.27719207896044706  0.8834435650708168  1.0000
  O   O39       1.0  0.24291735226634786  0.22245516554240463  0.38307025014032137  1.0000
  O   O40       1.0  0.25708249531681787  0.7224550815869063  0.1169297307254719  1.0000
  C   C21       1.0  0.4304493324960934  0.7375892303952013  0.7176566622084548  1.0000
  C   C22       1.0  0.06955066347007402  0.23758914148931687  0.7823433147955473  1.0000
  C   C23       1.0  0.569773361889495  0.26260917931153466  0.28266941577338095  1.0000
  C   C24       1.0  0.9302266158176175  0.7626091063078879  0.21733058312024806  1.0000
  H   H21       1.0  0.37472083269295475  0.8117177437611278  0.6828683118881088  1.0000
  H   H22       1.0  0.12527918742985894  0.3117178196665368  0.8171317715429081  1.0000
  H   H23       1.0  0.6255523367816952  0.18849610924120538  0.31743814776861345  1.0000
  H   H24       1.0  0.8744475953275705  0.6884960799082266  0.18256185940097172  1.0000
  N   N41       1.0  0.46751372709524397  0.7415260148952459  0.8322427808040549  1.0000
  N   N42       1.0  0.03248621767160667  0.24152603376399231  0.6677571969985363  1.0000
  N   N43       1.0  0.5327395801296563  0.2584996689159741  0.16814989001943847  1.0000
  N   N44       1.0  0.9672604149165144  0.7584996456174701  0.33185013786086937  1.0000
  N   N45       1.0  0.41728016465286083  0.832123835666211  0.8787785002106792  1.0000
  N   N46       1.0  0.0827198158017936  0.332123865039287  0.6212215897005081  1.0000
  N   N47       1.0  0.5830916545103417  0.167819885122929  0.12186088729381221  1.0000
  N   N48       1.0  0.9169083954648491  0.6678199531047244  0.3781390988336428  1.0000
  O   O41       1.0  0.3977494111122409  0.9143254894898387  0.8270540743665208  1.0000
  O   O42       1.0  0.10225062277690557  0.4143254853328513  0.6729459511732093  1.0000
  O   O43       1.0  0.6013780985279024  0.08549823770304604  0.17332740826496806  1.0000
  O   O44       1.0  0.8986218482925261  0.5854981581428256  0.3266726023779703  1.0000
  O   O45       1.0  0.40601169788393504  0.8197714904019014  0.9671491147371258  1.0000
  O   O46       1.0  0.09398833030226837  0.31977149389312687  0.5328509090895553  1.0000
  O   O47       1.0  0.5958464057996442  0.18033732857478432  0.03386541845152346  1.0000
  O   O48       1.0  0.9041536014815005  0.6803373129097412  0.46613462958979984  1.0000
