data_C6H6N12O12
_audit_creation_method 'chmpy python library version 1.0a1'
_cell_length_a 8.480811
_cell_length_b 12.28331
_cell_length_c 12.858582
_cell_angle_alpha 90.0
_cell_angle_beta 104.901054
_cell_angle_gamma 90.0
loop_
_symmetry_equiv_pos_site_id
_symmetry_equiv_pos_as_xyz
                   1 -x,-y,-z
                   2 +x,+y,+z
                   3 1/2-x,1/2+y,1/2-z
                   4 1/2+x,1/2-y,1/2+z
loop_
_atom_site_label
_atom_site_type_symbol
_atom_site_fract_x
_atom_site_fract_y
_atom_site_fract_z
_atom_site_occupancy
C C       0.441481000000       0.634590000000       0.878582000000       1.000000000000
H H       0.412540000000       0.643602000000       0.958075000000       1.000000000000
N N       0.295570000000       0.593691000000       0.796327000000       1.000000000000
N N       0.146946000000       0.584701000000       0.823934000000       1.000000000000
O O       0.016173000000       0.597953000000       0.752961000000       1.000000000000
O O       0.150809000000       0.564808000000       0.920201000000       1.000000000000
C C       0.306934000000       0.632225000000       0.688060000000       1.000000000000
H H       0.181666000000       0.648836000000       0.635873000000       1.000000000000
N N       0.387894000000       0.546382000000       0.637525000000       1.000000000000
N N       0.324143000000       0.505276000000       0.533944000000       1.000000000000
O O       0.384013000000       0.419623000000       0.507244000000       1.000000000000
O O       0.213299000000       0.556136000000       0.469248000000       1.000000000000
C C       0.555746000000       0.515137000000       0.696943000000       1.000000000000
H H       0.603446000000       0.451125000000       0.651330000000       1.000000000000
N N       0.550986000000       0.471270000000       0.803902000000       1.000000000000
N N       0.443255000000       0.388479000000       0.815415000000       1.000000000000
O O       0.394539000000       0.320969000000       0.741060000000       1.000000000000
O O       0.396057000000       0.385260000000       0.899881000000       1.000000000000
C C       0.595923000000       0.561727000000       0.882941000000       1.000000000000
H H       0.656856000000       0.529699000000       0.964587000000       1.000000000000
N N       0.717053000000       0.624430000000       0.841335000000       1.000000000000
N N       0.800774000000       0.712857000000       0.898279000000       1.000000000000
O O       0.847918000000       0.787772000000       0.847577000000       1.000000000000
O O       0.822121000000       0.715602000000       0.998245000000       1.000000000000
C C       0.666672000000       0.619362000000       0.721673000000       1.000000000000
H H       0.776772000000       0.615572000000       0.689153000000       1.000000000000
N N       0.571897000000       0.719438000000       0.680462000000       1.000000000000
N N       0.646739000000       0.806821000000       0.642210000000       1.000000000000
O O       0.594757000000       0.901328000000       0.649437000000       1.000000000000
O O       0.765798000000       0.788494000000       0.603765000000       1.000000000000
C C       0.419203000000       0.735932000000       0.715021000000       1.000000000000
H H       0.357674000000       0.812044000000       0.677564000000       1.000000000000
N N       0.461724000000       0.744237000000       0.834994000000       1.000000000000
N N       0.433846000000       0.837163000000       0.890316000000       1.000000000000
O O       0.390621000000       0.923076000000       0.838525000000       1.000000000000
O O       0.451811000000       0.830811000000       0.990098000000       1.000000000000
#END