data_cif

_audit_creation_method             'generated by GULP'

_symmetry_space_group_name_H-M     'P 1 21/N 1      '
_symmetry_Int_Tables_number        14
_symmetry_cell_setting             Monoclinic  

_cell_length_a                       9.208905
_cell_length_b                      13.404738
_cell_length_c                      13.291544
_cell_angle_alpha                   90.000000
_cell_angle_beta                   104.849186
_cell_angle_gamma                   90.000000

loop_
_atom_site_label
_atom_site_fract_x
_atom_site_fract_y
_atom_site_fract_z
_atom_site_occupancy
  C5          0.43604      0.63350      0.86066  1.0000
  H2          0.41311      0.63537      0.93773  1.0000
  N1          0.30110      0.60280      0.77914  1.0000
  N4          0.15787      0.60870      0.79797  1.0000
  O3          0.04913      0.61288      0.72215  1.0000
  O3          0.15056      0.59306      0.88747  1.0000
  C5          0.32783      0.63718      0.68021  1.0000
  H2          0.22385      0.66410      0.62639  1.0000
  N1          0.39379      0.55306      0.63341  1.0000
  N4          0.30492      0.49341      0.55424  1.0000
  O3          0.36741      0.42478      0.52111  1.0000
  O3          0.18036      0.52498      0.51018  1.0000
  C5          0.54847      0.52229      0.69103  1.0000
  H2          0.59629      0.46857      0.64594  1.0000
  N1          0.54384      0.47825      0.79157  1.0000
  N4          0.44411      0.40119      0.80045  1.0000
  O3          0.41020      0.34099      0.72934  1.0000
  O3          0.42122      0.38852      0.88641  1.0000
  C5          0.57872      0.56056      0.86722  1.0000
  H2          0.61819      0.53109      0.94663  1.0000
  N1          0.70393      0.61020      0.83657  1.0000
  N4          0.79107      0.68448      0.89887  1.0000
  O3          0.87785      0.73258      0.86210  1.0000
  O3          0.78633      0.68854      0.98997  1.0000
  C5          0.65982      0.61480      0.72239  1.0000
  H2          0.75835      0.60383      0.69138  1.0000
  N1          0.58581      0.71292      0.68893  1.0000
  N4          0.66205      0.79147      0.65380  1.0000
  O3          0.59914      0.87278      0.63859  1.0000
  O3          0.77440      0.76948      0.62543  1.0000
  C5          0.43880      0.72865      0.71283  1.0000
  H2          0.38347      0.79655      0.67552  1.0000
  N1          0.46389      0.73418      0.82581  1.0000
  N4          0.43632      0.82032      0.87685  1.0000
  O3          0.43397      0.89932      0.83051  1.0000
  O3          0.44098      0.81242      0.96949  1.0000
