data_image0
_chemical_formula_structural       C20H16
_chemical_formula_sum              "C20 H16"
_cell_length_a       8.256
_cell_length_b       5.983
_cell_length_c       8.677
_cell_angle_alpha    90.0
_cell_angle_beta     122.72899999999998
_cell_angle_gamma    90.0

_space_group_name_H-M_alt    "P 1"
_space_group_IT_number       1

loop_
  _space_group_symop_operation_xyz
  'x, y, z'

loop_
  _atom_site_type_symbol
  _atom_site_label
  _atom_site_symmetry_multiplicity
  _atom_site_fract_x
  _atom_site_fract_y
  _atom_site_fract_z
  _atom_site_occupancy
  C   C1        1.0  0.0862602939920163  0.021084236570374542  0.32779306632161315  1.0000
  C   C2        1.0  0.4137390544660168  0.5210841145816044  0.6722066036595825  1.0000
  C   C3        1.0  0.9135124036347374  0.9789525417448824  0.6719746964611452  1.0000
  C   C4        1.0  0.586487189646521  0.478952227884501  0.3280252233394432  1.0000
  C   C5        1.0  0.11433539588255143  0.16319431366643197  0.2189860176534099  1.0000
  C   C6        1.0  0.38566478871596116  0.6631944687747641  0.7810141642529633  1.0000
  C   C7        1.0  0.8854148046286485  0.8368763415908654  0.7807779261783919  1.0000
  C   C8        1.0  0.6145853386533608  0.3368765491431845  0.2192221273381009  1.0000
  C   C9        1.0  0.048018794182320704  0.10514624667796246  0.03528022504562427  1.0000
  C   C10       1.0  0.4519812363287977  0.6051461636102888  0.9647198502216031  1.0000
  C   C11       1.0  0.9518479918203425  0.8948725180277717  0.964517116941413  1.0000
  C   C12       1.0  0.5481519196723506  0.39487235833483925  0.03548270982646673  1.0000
  C   C13       1.0  0.0741445284043767  0.2479896256089845  0.9196644721326802  1.0000
  C   C14       1.0  0.42585502567030004  0.7479892801810195  0.0803355016965701  1.0000
  C   C15       1.0  0.9258446020872052  0.7519567572110254  0.08016745851890823  1.0000
  C   C16       1.0  0.5741550199100856  0.2519565135573633  0.9198322394184181  1.0000
  C   C17       1.0  0.008865171228308951  0.18620155804399938  0.7419988852605144  1.0000
  C   C18       1.0  0.49113537219274384  0.6862017440016149  0.25800139849303233  1.0000
  C   C19       1.0  0.9910757700437599  0.8137411357377282  0.2578143299952482  1.0000
  C   C20       1.0  0.5089246414338289  0.31374158417393944  0.742185682982287  1.0000
  H   H1        1.0  0.1375782177539636  0.06909800911389295  0.46831567016699344  1.0000
  H   H2        1.0  0.3624219739211334  0.5690979519195518  0.5316842998741338  1.0000
  H   H3        1.0  0.8620537307807261  0.9309941049235864  0.5314092861313959  1.0000
  H   H4        1.0  0.6379466073214474  0.430994179871734  0.46859108598671434  1.0000
  H   H5        1.0  0.18721233704576845  0.32314595793045375  0.27188705931997437  1.0000
  H   H6        1.0  0.3127878357794946  0.8231460534933522  0.7281129860714819  1.0000
  H   H7        1.0  0.8124967106192501  0.6769440035005091  0.7278716195800551  1.0000
  H   H8        1.0  0.6875029917737285  0.17694393385081802  0.27212821992401287  1.0000
  H   H9        1.0  0.14750581721905046  0.4073727124163058  0.9738996927182259  1.0000
  H   H10       1.0  0.3524940417564348  0.9073726216192287  0.026100232910050477  1.0000
  H   H11       1.0  0.852516913908389  0.592559495536678  0.025922975686167297  1.0000
  H   H12       1.0  0.6474830745695116  0.09255939222393043  0.9740771192417828  1.0000
  H   H13       1.0  0.03145071184259886  0.2973943120251229  0.6555730426828786  1.0000
  H   H14       1.0  0.4685496017477496  0.7973944982330662  0.34442715637036897  1.0000
  H   H15       1.0  0.9686160372926543  0.7024763183947285  0.344283305439002  1.0000
  H   H16       1.0  0.5313842408285555  0.20247628830811393  0.655716843214579  1.0000
