# CIF file generated from CASTEP cell file
# https://gist.github.com/blake-armstrong/93facdde07a6e0a1ddb51857dd48e3f1
# Structure converted from CASTEP

data_structure

_cell_length_a    8.101935016383836
_cell_length_b    5.914394190361080
_cell_length_c    8.663253965194903
_cell_angle_alpha 90.000000000000000
_cell_angle_beta  124.242884820568690
_cell_angle_gamma 90.000000000000000

_symmetry_space_group_name_H-M 'P 1'
_symmetry_Int_Tables_number 1

loop_
_atom_site_label
_atom_site_type_symbol
_atom_site_fract_x
_atom_site_fract_y
_atom_site_fract_z
H1       H     0.132593477799110    0.068252944648348    0.469651522064616
H2       H     0.186149636676744    0.327521039502166    0.277666685141872
H3       H     0.150238235777472    0.414838881907339   -0.018749596556281
H4       H     0.037640690767199    0.304424819399098   -0.339122623698361
H5       H     0.367406522200889    0.568252944648348   -0.469651522064616
H6       H     0.313850363323254    0.827521039502167   -0.277666685141872
H7       H     0.349761764222527    0.914838881907339    0.018749596556281
H8       H     0.462359309232802    0.804424819399099    0.339122623698361
H9       H    -0.132593477799110   -0.068252944648348   -0.469651522064616
H10      H    -0.186149636676744   -0.327521039502166   -0.277666685141872
H11      H    -0.150238235777472   -0.414838881907339    0.018749596556281
H12      H    -0.037640690767199   -0.304424819399098    0.339122623698361
H13      H     0.632593477799110    0.431747055351652    0.469651522064616
H14      H     0.686149636676745    0.172478960497834    0.277666685141872
H15      H     0.650238235777473    0.085161118092661   -0.018749596556281
H16      H     0.537640690767199    0.195575180600902   -0.339122623698361
C1       C     0.082671102456075    0.019835047454578    0.328396478928786
C2       C     0.113122789195555    0.165008704506167    0.222072441666236
C3       C     0.048409084967110    0.106783736397139    0.037233861020894
C4       C     0.076724203644109    0.252968062372969   -0.075850085573346
C5       C     0.013205884289991    0.190922498178477   -0.254730577827780
C6       C     0.417328897543925    0.519835047454578   -0.328396478928786
C7       C     0.386877210804445    0.665008704506167   -0.222072441666236
C8       C     0.451590915032889    0.606783736397140   -0.037233861020894
C9       C     0.423275796355891    0.752968062372970    0.075850085573346
C10      C     0.486794115710010    0.690922498178477    0.254730577827780
C11      C    -0.082671102456075   -0.019835047454578   -0.328396478928786
C12      C    -0.113122789195555   -0.165008704506167   -0.222072441666236
C13      C    -0.048409084967110   -0.106783736397139   -0.037233861020894
C14      C    -0.076724203644109   -0.252968062372969    0.075850085573346
C15      C    -0.013205884289991   -0.190922498178477    0.254730577827780
C16      C     0.582671102456075    0.480164952545422    0.328396478928786
C17      C     0.613122789195556    0.334991295493833    0.222072441666236
C18      C     0.548409084967111    0.393216263602861    0.037233861020894
C19      C     0.576724203644109    0.247031937627032   -0.075850085573346
C20      C     0.513205884289991    0.309077501821523   -0.254730577827780
