data_image0
_chemical_formula_structural       C20H16
_chemical_formula_sum              "C20 H16"
_cell_length_a       8.575466075440442
_cell_length_b       5.959786976284058
_cell_length_c       9.499273930732091
_cell_angle_alpha    90.33697733849459
_cell_angle_beta     126.72898353767451
_cell_angle_gamma    89.85565886674736

_space_group_name_H-M_alt    "P 1"
_space_group_IT_number       1

loop_
  _space_group_symop_operation_xyz
  'x, y, z'

loop_
  _atom_site_type_symbol
  _atom_site_label
  _atom_site_symmetry_multiplicity
  _atom_site_fract_x
  _atom_site_fract_y
  _atom_site_fract_z
  _atom_site_occupancy
  C   C1        1.0  0.10302135603205409  0.028098703527728145  0.31102063404644864  1.0000
  C   C2        1.0  0.41005561767075915  0.5218735877617044  0.693401020409187  1.0000
  C   C3        1.0  0.8969393293807749  0.9708726489557213  0.6896546332599433  1.0000
  C   C4        1.0  0.5899617239695071  0.47923903488474673  0.3058943035741068  1.0000
  C   C5        1.0  0.12878330724213327  0.16444449549074877  0.20984337542796133  1.0000
  C   C6        1.0  0.3778029103939307  0.6608751273024852  0.7899425661116889  1.0000
  C   C7        1.0  0.8713792826359371  0.834519748534596  0.7909549155182843  1.0000
  C   C8        1.0  0.6220710403366426  0.3402406102728179  0.20928818490556264  1.0000
  C   C9        1.0  0.052316417014907156  0.10317434433014327  0.03532357198815205  1.0000
  C   C10       1.0  0.44750599673025426  0.6034697067267938  0.9629365914742714  1.0000
  C   C11       1.0  0.9479108527273592  0.8959253459185285  0.9654467306897804  1.0000
  C   C12       1.0  0.5519591896356393  0.39747284783715037  0.03616037439688364  1.0000
  C   C13       1.0  0.07611982801912187  0.24000123427652595  0.9279639075517846  1.0000
  C   C14       1.0  0.4168898100633639  0.7429892460032999  0.06555564046399565  1.0000
  C   C15       1.0  0.9241099253151457  0.7590055120579241  0.07276095436498496  1.0000
  C   C16       1.0  0.582544417491618  0.2578701975857206  0.933592425593063  1.0000
  C   C17       1.0  0.00035477562713789396  0.17523337537763128  0.7588115932475927  1.0000
  C   C18       1.0  0.48622045679365256  0.6821543675855097  0.233358134995821  1.0000
  C   C19       1.0  0.9997099412217972  0.8237138234742999  0.24186539626966017  1.0000
  C   C20       1.0  0.513434736504494  0.3187034468242619  0.7658405428504712  1.0000
  H   H1        1.0  0.16229903388834369  0.07874474767955866  0.4454581673771593  1.0000
  H   H2        1.0  0.35609610654788537  0.5697732346521766  0.5601642833356295  1.0000
  H   H3        1.0  0.8375586294059403  0.9202172508176897  0.5551844313689118  1.0000
  H   H4        1.0  0.6445058870693976  0.43182635358516536  0.43934952918838494  1.0000
  H   H5        1.0  0.20815391774312308  0.3233992870205482  0.2618594525854906  1.0000
  H   H6        1.0  0.29865920830209425  0.8190986660713421  0.7353612600902086  1.0000
  H   H7        1.0  0.7921778247319604  0.675450536114755  0.7391603223341356  1.0000
  H   H8        1.0  0.701472453455641  0.18214798547393263  0.26375731288399556  1.0000
  H   H9        1.0  0.15731054725513294  0.3976724702801354  0.9821964833821175  1.0000
  H   H10       1.0  0.3357296735791106  0.8997264777944339  0.008823109108771017  1.0000
  H   H11       1.0  0.8431416891661889  0.6012217366627789  0.018521660830484232  1.0000
  H   H12       1.0  0.66365749353601  0.10113108753810507  0.9904555583803362  1.0000
  H   H13       1.0  0.021950382296239034  0.28209769426441966  0.6783031776310905  1.0000
  H   H14       1.0  0.4591897388439874  0.7909934311071474  0.31002634651249106  1.0000
  H   H15       1.0  0.9781285814822965  0.7167607816979827  0.3223118141808925  1.0000
  H   H16       1.0  0.5408567214981049  0.2098962761309294  0.6894203845820792  1.0000
