data_NAPHTA36.b3lyp.6-311G**.dma4.-70.4824.1.2091
_audit_creation_method 'generated by cspy2.0'
_cell_length_a 8.445
_cell_length_b 5.5459
_cell_length_c 8.0353
_cell_angle_alpha 90.0
_cell_angle_beta 110.6976
_cell_angle_gamma 90.0
loop_
_symmetry_equiv_pos_site_id
_symmetry_equiv_pos_as_xyz
1 +x,+y,+z
loop_
_atom_site_label
_atom_site_type_symbol
_atom_site_fract_x
_atom_site_fract_y
_atom_site_fract_z
_atom_site_occupancy
C1 C       0.109142380000       0.006627780000       0.335937600000       1.000000000000
C2 C      -0.109142380000      -0.006627780000      -0.335937600000       1.000000000000
C3 C       0.127419010000       0.158956200000       0.209076420000       1.000000000000
C4 C      -0.127419010000      -0.158956200000      -0.209076420000       1.000000000000
C5 C       0.049053970000       0.106533240000       0.025989440000       1.000000000000
C6 C      -0.049053970000      -0.106533240000      -0.025989440000       1.000000000000
C7 C       0.065138430000       0.261484560000      -0.107432570000       1.000000000000
C8 C      -0.065138430000      -0.261484560000       0.107432570000       1.000000000000
C9 C      -0.011568130000       0.205515860000      -0.283772110000       1.000000000000
C10 C       0.011568130000      -0.205515860000       0.283772110000       1.000000000000
C11 C       0.390857620000       0.506627780000       0.664062400000       1.000000000000
C12 C       0.609142380000       0.493372220000       1.335937600000       1.000000000000
C13 C       0.372580990000       0.658956200000       0.790923580000       1.000000000000
C14 C       0.627419010000       0.341043800000       1.209076420000       1.000000000000
C15 C       0.450946030000       0.606533240000       0.974010560000       1.000000000000
C16 C       0.549053970000       0.393466760000       1.025989440000       1.000000000000
C17 C       0.434861570000       0.761484560000       1.107432570000       1.000000000000
C18 C       0.565138430000       0.238515440000       0.892567430000       1.000000000000
C19 C       0.511568130000       0.705515860000       1.283772110000       1.000000000000
C20 C       0.488431870000       0.294484140000       0.716227890000       1.000000000000
H1 H       0.169344060000       0.049670570000       0.473855270000       1.000000000000
H2 H      -0.169344060000      -0.049670570000      -0.473855270000       1.000000000000
H3 H       0.202031560000       0.322557680000       0.246497760000       1.000000000000
H4 H      -0.202031560000      -0.322557680000      -0.246497760000       1.000000000000
H5 H       0.138820930000       0.422895420000      -0.068192110000       1.000000000000
H6 H      -0.138820930000      -0.422895420000       0.068192110000       1.000000000000
H7 H       0.003188660000       0.324523700000      -0.383542820000       1.000000000000
H8 H      -0.003188660000      -0.324523700000       0.383542820000       1.000000000000
H9 H       0.330655940000       0.549670570000       0.526144730000       1.000000000000
H10 H       0.669344060000       0.450329430000       1.473855270000       1.000000000000
H11 H       0.297968440000       0.822557680000       0.753502240000       1.000000000000
H12 H       0.702031560000       0.177442320000       1.246497760000       1.000000000000
H13 H       0.361179070000       0.922895420000       1.068192110000       1.000000000000
H14 H       0.638820930000       0.077104580000       0.931807890000       1.000000000000
H15 H       0.496811340000       0.824523700000       1.383542820000       1.000000000000
H16 H       0.503188660000       0.175476300000       0.616457180000       1.000000000000
#END