data_cif

_audit_creation_method             'generated by GULP'

_symmetry_space_group_name_H-M     'P 1 21/A 1      '
_symmetry_Int_Tables_number        14
_symmetry_cell_setting             Monoclinic  

_cell_length_a                       7.852778
_cell_length_b                       5.955682
_cell_length_c                       8.641108
_cell_angle_alpha                   90.000000
_cell_angle_beta                   125.385748
_cell_angle_gamma                   90.000000

loop_
_atom_site_label
_atom_site_fract_x
_atom_site_fract_y
_atom_site_fract_z
_atom_site_occupancy
  C2          0.08110      0.02936      0.32895  1.0000
  C2          0.10723      0.17444      0.21611  1.0000
  C2          0.04389      0.10724      0.03420  1.0000
  C2          0.06777      0.25272      0.92011  1.0000
  C2          0.00677      0.18437      0.73929  1.0000
  H1          0.12776      0.08369      0.46830  1.0000
  H1          0.17482      0.33966      0.26872  1.0000
  H1          0.13600      0.41776      0.97266  1.0000
  H1          0.02916      0.29714      0.65354  1.0000
