# CIF file generated from CASTEP cell file
# https://gist.github.com/blake-armstrong/93facdde07a6e0a1ddb51857dd48e3f1
# Structure converted from CASTEP

data_structure

_cell_length_a    7.788227806008632
_cell_length_b    20.975162403939905
_cell_length_c    5.743058052611161
_cell_angle_alpha 89.999007000618818
_cell_angle_beta  89.999911058065905
_cell_angle_gamma 89.999689197861230

_symmetry_space_group_name_H-M 'P 1'
_symmetry_Int_Tables_number 1

loop_
_atom_site_label
_atom_site_type_symbol
_atom_site_fract_x
_atom_site_fract_y
_atom_site_fract_z
H1       H     0.424252509457210    0.250009063726182    0.615823586738388
H2       H     0.480266777752501    0.359493452960391    0.612474663267207
H3       H     0.448794836680150    0.464761899505270    0.798859412201323
H4       H     0.295889821407031    0.474865090594143    1.180938346189610
H5       H     0.172267164156297    0.377890749028673    1.366583831321668
H6       H     0.075745826077295    0.749999407503997    0.115792862487188
H7       H     0.019729663522171    0.640516363606530    0.112427053140316
H8       H     0.051200789756874    0.535242680754354    0.298785241353789
H9       H     0.204103207114950    0.525129646799408    0.680865468383830
H10      H     0.327728409232377    0.622099215575521    0.866530179527433
H11      H     0.924255849975283    0.250000203972981    0.884207406471914
H12      H     0.980269799418496    0.140514355806034    0.887549988440624
H13      H     0.948798226043682    0.035247133698454    0.701155371200683
H14      H     0.795889252704005    0.025146469897862    0.319075885909138
H15      H     0.672262310403742    0.122122385177395    0.133443560199363
H16      H     0.575750208136157    0.749991553711599    0.384176952904121
H17      H     0.519736834807876    0.859475998162558    0.387540426558255
H18      H     0.551206604788283    0.964748046633383    0.201169558848311
H19      H     0.704104828097435    0.974857852757023   -0.180917203133167
H20      H     0.827730576280229    0.877886562791668   -0.366571876985868
H21      H     0.519733047004101    0.640507902253481    0.387524199793193
H22      H     0.551205638202547    0.535238618221556    0.201146666373736
H23      H     0.704108802030214    0.525134487163430   -0.180934790244383
H24      H     0.827730351386247    0.622108354842927   -0.366585358281773
H25      H     0.980268695122963    0.359483833859413    0.887577278357525
H26      H     0.948799278465311    0.464757004991556    0.701214501773648
H27      H     0.795894423813128    0.474869865375985    0.319136900504773
H28      H     0.672270223890471    0.377900096417681    0.133472399479570
H29      H     0.019729658934280    0.859484479910318    0.112452023163621
H30      H     0.051204079134351    0.964752630874127    0.298839598138039
H31      H     0.204111501749350    0.974853933638323    0.680921141510078
H32      H     0.327738654086289    0.877878303763585    0.866555345645108
H33      H     0.480262728911527    0.140523830006972    0.612455530722891
H34      H     0.448794241380241    0.035252369748221    0.798830459241501
H35      H     0.295894609920977    0.025142639053120    1.180915061239234
H36      H     0.172268448499523    0.122114099517622    1.366567927529780
C1       C     0.253153154760153    0.315032430957050    1.092217941368409
C2       C     0.341234105576990    0.308767038833756    0.878919126702828
C3       C     0.411959741584945    0.363587528123524    0.777035482875514
C4       C     0.394082525551668    0.422985578203224    0.883348861910622
C5       C     0.309242450358645    0.428707676109155    1.096449369789795
C6       C     0.240355814716366    0.374291924887731    1.201517746332296
C7       C     0.246841955652860    0.684965301931347    0.592178698083664
C8       C     0.158758297085872    0.691235723112684    0.378882553694570
C9       C     0.088034675375765    0.636417801244808    0.276987626187409
C10      C     0.105911800847523    0.577016710818888    0.383286822923238
C11      C     0.190751691312289    0.571289562813501    0.596385885740510
C12      C     0.259639382267254    0.625702139434752    0.701464520205823
C13      C     0.753156187780887    0.184979192704343    0.407810175978362
C14      C     0.841240379444249    0.191242799558157    0.621107303680994
C15      C     0.911963691833340    0.136421289724005    0.722987117990972
C16      C     0.894084704146645    0.077023909223066    0.616669640673568
C17      C     0.809242034267000    0.071303822550449    0.403569276865619
C18      C     0.740355111939644    0.125720237412756    0.298507536192027
C19      C     0.746847623531343    0.815023163085748   -0.092210243699857
C20      C     0.658766904944697    0.808754453514630    0.121087720843165
C21      C     0.588042618619364    0.863573581251834    0.222978646899134
C22      C     0.605919062727851    0.922973455085477    0.116672971240024
C23      C     0.690757407437611    0.928698875430847   -0.096430034253527
C24      C     0.759643374936880    0.874284660247891   -0.201503786530016
C25      C     0.746847153676723    0.684967695838140   -0.092218952525027
C26      C     0.658765968735152    0.691233332208128    0.121080342825224
C27      C     0.588040453069648    0.636413081095218    0.222964550484951
C28      C     0.605917681130446    0.577014520485957    0.116654166991046
C29      C     0.690757892070576    0.571292227841822   -0.096447085442679
C30      C     0.759643541727710    0.625707416272633   -0.201517346533694
C31      C     0.753157751382199    0.315034734822919    0.407823870862514
C32      C     0.841240251697479    0.308764053793757    0.621120525930504
C33      C     0.911963874339139    0.363582025662704    0.723015966918127
C34      C     0.894087207309095    0.422982785844689    0.616715323770681
C35      C     0.809247141764796    0.428710071007563    0.403616231066796
C36      C     0.740359793394763    0.374297251070124    0.298537464275504
C37      C     0.246844449754507    0.815020449664114    0.592190898041923
C38      C     0.158759020700687    0.808756749881830    0.378894784457247
C39      C     0.088035998786234    0.863578202372374    0.277014295241436
C40      C     0.105916347608130    0.922975945700603    0.383328537002392
C41      C     0.190759076210230    0.928696336711159    0.596428094125902
C42      C     0.259645845065986    0.874280062813919    0.701491393443412
C43      C     0.253152812351791    0.184977026992750    1.092207518788422
C44      C     0.341233254585697    0.191245855413642    0.878909103286409
C45      C     0.411957379609369    0.136426893036117    0.777017802130135
C46      C     0.394081453094627    0.077026942565052    0.883325379379046
C47      C     0.309243268051136    0.071301688330750    1.096427803366615
C48      C     0.240356872394675    0.125715726060885    1.201501351583742
N1       N     0.355962271561951    0.250007633044548    0.768063546180639
N2       N     0.144028465581810    0.749997684010020    0.268038161890591
N3       N     0.855970395663108    0.250001866169715    0.731962871439456
N4       N     0.644037406137506    0.749992703550820    0.231934321926112
S1       S     0.138544594620230    0.250003979666456    1.211131038432941
S2       S     0.361455012067337    0.749990610888860    0.711095995781581
S3       S     0.638547542987820    0.250009132408644    0.288901132519283
S4       S     0.861457247826197    0.749995876212775   -0.211129649307410
