data_C6H5NS
_audit_creation_method 'chmpy python library version 1.0a1'
_cell_length_a 8.169842
_cell_length_b 20.807624
_cell_length_c 5.093589
_cell_angle_alpha 90.0
_cell_angle_beta 90.0
_cell_angle_gamma 90.0
loop_
_symmetry_equiv_pos_site_id
_symmetry_equiv_pos_as_xyz
                   1 -x,-y,-z
                   2 +x,+y,+z
                   3 -x,1/2+y,-z
                   4 +x,1/2-y,+z
                   5 1/2-x,-y,1/2+z
                   6 1/2+x,+y,1/2-z
                   7 1/2-x,1/2+y,1/2+z
                   8 1/2+x,1/2-y,1/2-z
loop_
_atom_site_label
_atom_site_type_symbol
_atom_site_fract_x
_atom_site_fract_y
_atom_site_fract_z
_atom_site_occupancy
S S       0.143110000000       0.250000000000       0.259781000000       1.000000000000
N N       0.380568000000       0.250000000000       0.767317000000       1.000000000000
H H       0.461167000000       0.250000000000       0.609895000000       1.000000000000
C C       0.251023000000       0.316460000000       0.114380000000       1.000000000000
C C       0.349726000000       0.310693000000       0.884457000000       1.000000000000
C C       0.423224000000       0.366227000000       0.777110000000       1.000000000000
H H       0.499314000000       0.361218000000       0.602124000000       1.000000000000
C C       0.400906000000       0.426609000000       0.893397000000       1.000000000000
H H       0.458597000000       0.468986000000       0.806283000000       1.000000000000
C C       0.306104000000       0.432132000000       0.121664000000       1.000000000000
H H       0.289238000000       0.478972000000       0.215122000000       1.000000000000
C C       0.232083000000       0.377169000000       0.230434000000       1.000000000000
H H       0.156740000000       0.381062000000       0.406839000000       1.000000000000
#END