data_PHESAZ07.b3lyp.6-311G**.dma4.-168.0945.1.4947
_audit_creation_method 'generated by cspy2.0'
_cell_length_a 8.6178
_cell_length_b 19.9996
_cell_length_c 5.138
_cell_angle_alpha 90.0
_cell_angle_beta 90.0
_cell_angle_gamma 90.0
loop_
_symmetry_equiv_pos_site_id
_symmetry_equiv_pos_as_xyz
1 +x,+y,+z
loop_
_atom_site_label
_atom_site_type_symbol
_atom_site_fract_x
_atom_site_fract_y
_atom_site_fract_z
_atom_site_occupancy
S1 S       0.137623320000       0.250000000000       0.218187690000       1.000000000000
S2 S       0.798082690000       0.750000000000       0.749284220000       1.000000000000
S3 S       0.292062890000       0.750000000000       0.718187690000       1.000000000000
S4 S       0.631603540000       0.250000010000       0.249284230000       1.000000000000
N1 N       0.341690850000       0.250000000000      -0.256612970000       1.000000000000
N2 N       0.586305160000       0.750000000000       1.214489480000       1.000000000000
N3 N       0.087995380000       0.750000000000       0.243387030000       1.000000000000
N4 N       0.843381050000       0.250000000000       0.714489500000       1.000000000000
H1 H       0.391905840000       0.250000000000      -0.382644880000       1.000000000000
H2 H       0.460815230000       0.364137490000      -0.385559240000       1.000000000000
H3 H       0.460815220000       0.135862520000      -0.385559270000       1.000000000000
H4 H       0.430451850000       0.033515960000      -0.193100550000       1.000000000000
H5 H       0.430451860000       0.466484040000      -0.193100500000       1.000000000000
H6 H       0.291764440000       0.024185170000       0.189433730000       1.000000000000
H7 H       0.291764440000       0.475814830000       0.189433780000       1.000000000000
H8 H       0.178364660000       0.382988540000       0.369325940000       1.000000000000
H9 H       0.178364660000       0.117011460000       0.369325910000       1.000000000000
H10 H       0.534042120000       0.750000000000       1.338156760000       1.000000000000
H11 H       0.465111000000       0.635862520000       1.337890560000       1.000000000000
H12 H       0.465111000000       0.864137490000       1.337890510000       1.000000000000
H13 H       0.498619400000       0.966484040000       1.146905560000       1.000000000000
H14 H       0.498619410000       0.533515960000       1.146905670000       1.000000000000
H15 H       0.643528310000       0.975814820000       0.770915120000       1.000000000000
H16 H       0.643528310000       0.524185170000       0.770915230000       1.000000000000
H17 H       0.759835600000       0.617011440000       0.596323420000       1.000000000000
H18 H       0.759835590000       0.882988540000       0.596323350000       1.000000000000
H19 H       0.037780390000       0.750000000000       0.117355110000       1.000000000000
H20 H      -0.031129010000       0.635862510000       0.114440740000       1.000000000000
H21 H      -0.031129010000       0.864137490000       0.114440720000       1.000000000000
H22 H      -0.000765640000       0.966484040000       0.306899440000       1.000000000000
H23 H      -0.000765640000       0.533515960000       0.306899480000       1.000000000000
H24 H       0.137921760000       0.975814830000       0.689433720000       1.000000000000
H25 H       0.137921770000       0.524185180000       0.689433770000       1.000000000000
H26 H       0.251321540000       0.617011460000       0.869325930000       1.000000000000
H27 H       0.251321540000       0.882988540000       0.869325900000       1.000000000000
H28 H       0.895644090000       0.250000000000       0.838156780000       1.000000000000
H29 H       0.964575210000       0.364137480000       0.837890580000       1.000000000000
H30 H       0.964575210000       0.135862510000       0.837890550000       1.000000000000
H31 H       0.931066790000       0.033515960000       0.646905610000       1.000000000000
H32 H       0.931066810000       0.466484040000       0.646905680000       1.000000000000
H33 H       0.786157910000       0.024185180000       0.270915150000       1.000000000000
H34 H       0.786157930000       0.475814830000       0.270915230000       1.000000000000
H35 H       0.669850640000       0.382988550000       0.096323420000       1.000000000000
H36 H       0.669850640000       0.117011460000       0.096323380000       1.000000000000
C1 C       0.244690910000       0.318046780000       0.095123010000       1.000000000000
C2 C       0.244690910000       0.181953220000       0.095122990000       1.000000000000
C3 C       0.330372280000       0.311587570000      -0.134535520000       1.000000000000
C4 C       0.330372280000       0.188412430000      -0.134535530000       1.000000000000
C5 C       0.401114110000       0.367846570000      -0.235473010000       1.000000000000
C6 C       0.401114100000       0.132153440000      -0.235473040000       1.000000000000
C7 C       0.385090070000       0.428837420000      -0.118952760000       1.000000000000
C8 C       0.385090070000       0.071162580000      -0.118952810000       1.000000000000
C9 C       0.301638780000       0.065540870000       0.108243010000       1.000000000000
C10 C       0.301638790000       0.434459130000       0.108243060000       1.000000000000
C11 C       0.233323030000       0.379079520000       0.214322990000       1.000000000000
C12 C       0.233323030000       0.120920480000       0.214322950000       1.000000000000
C13 C       0.689037220000       0.681953220000       0.867362230000       1.000000000000
C14 C       0.689037220000       0.818046780000       0.867362200000       1.000000000000
C15 C       0.599621640000       0.688412430000       1.092980500000       1.000000000000
C16 C       0.599621640000       0.811587570000       1.092980470000       1.000000000000
C17 C       0.527251110000       0.632153440000       1.190615760000       1.000000000000
C18 C       0.527251110000       0.867846570000       1.190615700000       1.000000000000
C19 C       0.545180130000       0.571162580000       1.074878980000       1.000000000000
C20 C       0.545180130000       0.928837420000       1.074878900000       1.000000000000
C21 C       0.632326090000       0.934459130000       0.851619520000       1.000000000000
C22 C       0.632326100000       0.565540870000       0.851619610000       1.000000000000
C23 C       0.702355820000       0.620920470000       0.748731910000       1.000000000000
C24 C       0.702355810000       0.879079520000       0.748731840000       1.000000000000
C25 C       0.184995300000       0.681953230000       0.595123000000       1.000000000000
C26 C       0.184995300000       0.818046780000       0.595122980000       1.000000000000
C27 C       0.099313950000       0.688412430000       0.365464470000       1.000000000000
C28 C       0.099313950000       0.811587570000       0.365464460000       1.000000000000
C29 C       0.028572120000       0.632153440000       0.264526970000       1.000000000000
C30 C       0.028572120000       0.867846570000       0.264526950000       1.000000000000
C31 C       0.044596140000       0.571162580000       0.381047220000       1.000000000000
C32 C       0.044596140000       0.928837420000       0.381047200000       1.000000000000
C33 C       0.128047440000       0.934459130000       0.608243010000       1.000000000000
C34 C       0.128047440000       0.565540870000       0.608243040000       1.000000000000
C35 C       0.196363180000       0.620920480000       0.714322980000       1.000000000000
C36 C       0.196363180000       0.879079530000       0.714322960000       1.000000000000
C37 C       0.740649010000       0.318046780000       0.367362250000       1.000000000000
C38 C       0.740649000000       0.181953230000       0.367362220000       1.000000000000
C39 C       0.830064570000       0.311587570000       0.592980510000       1.000000000000
C40 C       0.830064570000       0.188412430000       0.592980490000       1.000000000000
C41 C       0.902435110000       0.367846560000       0.690615780000       1.000000000000
C42 C       0.902435100000       0.132153430000       0.690615730000       1.000000000000
C43 C       0.884506090000       0.428837420000       0.574879000000       1.000000000000
C44 C       0.884506090000       0.071162580000       0.574878940000       1.000000000000
C45 C       0.797360130000       0.065540870000       0.351619550000       1.000000000000
C46 C       0.797360130000       0.434459140000       0.351619620000       1.000000000000
C47 C       0.727330420000       0.379079530000       0.248731910000       1.000000000000
C48 C       0.727330410000       0.120920480000       0.248731870000       1.000000000000
#END