data_image0
_chemical_formula_structural       S4N4H4C24H8C8H8C8H8C8H8
_chemical_formula_sum              "S4 N4 H36 C48"
_cell_length_a       8.486860460004511
_cell_length_b       21.008529870225694
_cell_length_c       5.673406048233587
_cell_angle_alpha    90.0322600854051
_cell_angle_beta     89.92095001014158
_cell_angle_gamma    90.04337881459222

_space_group_name_H-M_alt    "P 1"
_space_group_IT_number       1

loop_
  _space_group_symop_operation_xyz
  'x, y, z'

loop_
  _atom_site_type_symbol
  _atom_site_label
  _atom_site_symmetry_multiplicity
  _atom_site_fract_x
  _atom_site_fract_y
  _atom_site_fract_z
  _atom_site_occupancy
  S   S1        1.0  0.1600029892914626  0.2499405401882229  0.1977430663774436  1.0000
  S   S2        1.0  0.33923673566515394  0.7501170527749609  0.696073367357442  1.0000
  S   S3        1.0  0.8391994501791142  0.7500302575635207  0.8010078362867598  1.0000
  S   S4        1.0  0.6604353267224782  0.2497278963435617  0.3041781796601458  1.0000
  N   N1        1.0  0.38985822312310237  0.2500609699840446  0.7749320116163377  1.0000
  N   N2        1.0  0.11021054280505897  0.7500380971982737  0.27327032814109986  1.0000
  N   N3        1.0  0.6097376731645724  0.7499109841269427  0.2242253429726691  1.0000
  N   N4        1.0  0.8884097466847484  0.2500288007964241  0.7278818907468593  1.0000
  H   H1        1.0  0.46138878949804596  0.2501199714821627  0.628010227468142  1.0000
  H   H2        1.0  0.039534764446536995  0.7500298230328117  0.1258201248285868  1.0000
  H   H3        1.0  0.5383766926244231  0.7498979275954829  0.3712884525125706  1.0000
  H   H4        1.0  0.9594593805324976  0.25014390056789454  0.8749939328726745  1.0000
  C   C1        1.0  0.26267342319209863  0.3149887726495033  0.07674569374631811  1.0000
  C   C2        1.0  0.23610960574134437  0.6851409643330627  0.5754488931307793  1.0000
  C   C3        1.0  0.7367089114253513  0.8150022416755653  0.9228164294519251  1.0000
  C   C4        1.0  0.7634963342096338  0.18487963575829308  0.42507723793089414  1.0000
  C   C5        1.0  0.7367615921094766  0.6849923388358399  0.9224582086769281  1.0000
  C   C6        1.0  0.7634600334953101  0.3148045654105319  0.42435040213844677  1.0000
  C   C7        1.0  0.2630091997918119  0.18502747381705337  0.0766183332743828  1.0000
  C   C8        1.0  0.23638341537221239  0.8150779553586358  0.5754373170188619  1.0000
  C   C9        1.0  0.3605701448778441  0.308552136905759  0.8774027913402493  1.0000
  C   C10       1.0  0.13897595917735073  0.6915574085103785  0.3757431250747017  1.0000
  C   C11       1.0  0.639014423914655  0.808436378870729  0.12228525751607973  1.0000
  C   C12       1.0  0.8602617257681788  0.19148446240671382  0.6251065571882422  1.0000
  C   C13       1.0  0.6391006774072356  0.6914182007730391  0.12199424831652607  1.0000
  C   C14       1.0  0.8602513289968393  0.3084482399625041  0.6244759709852078  1.0000
  C   C15       1.0  0.36064258784390757  0.19154413880697999  0.8770636892145823  1.0000
  C   C16       1.0  0.1390340649793926  0.8085502113361636  0.37591580722763845  1.0000
  C   C17       1.0  0.42804853181133995  0.3636250678246783  0.7804281104998559  1.0000
  C   C18       1.0  0.07192419220553825  0.6365120581010923  0.2781124557648874  1.0000
  C   C19       1.0  0.5719486380955117  0.8634197034494159  0.22033342976409478  1.0000
  C   C20       1.0  0.9275937789900309  0.13653660757906236  0.7226167738058707  1.0000
  C   C21       1.0  0.572119078251538  0.636365493355344  0.21975964019335253  1.0000
  C   C22       1.0  0.9277292030160659  0.3635187818912362  0.7213022299423166  1.0000
  C   C23       1.0  0.4280007839954967  0.1365360103505196  0.7795428480035025  1.0000
  C   C24       1.0  0.07184266413119655  0.863543186096883  0.2785872226267768  1.0000
  H   H5        1.0  0.5042067292239744  0.3593714076399356  0.6250080264914649  1.0000
  H   H6        1.0  0.9967868397968019  0.6408089484834641  0.12194244967510166  1.0000
  H   H7        1.0  0.49626895144749933  0.8590153525616342  0.37621310760967674  1.0000
  H   H8        1.0  0.002622745178380459  0.1408691637860662  0.8789443454338184  1.0000
  H   H9        1.0  0.49649751785763524  0.6406643115912659  0.3757541762940381  1.0000
  H   H10       1.0  0.0028299274069609748  0.3593384439236005  0.8775581763043256  1.0000
  H   H11       1.0  0.5038942494727138  0.14087436040173307  0.6238656018799053  1.0000
  H   H12       1.0  0.996427017670708  0.8592013772180781  0.12271610475056453  1.0000
  C   C25       1.0  0.4001099761092134  0.4228924571703679  0.8805744015499283  1.0000
  C   C26       1.0  0.0991962709923401  0.5772619377726037  0.378552153256918  1.0000
  C   C27       1.0  0.5999259047933976  0.9227744536508807  0.12105715046124234  1.0000
  C   C28       1.0  0.9007553069232141  0.07724594604504002  0.6218851474332332  1.0000
  C   C29       1.0  0.60013731116962  0.5770640051962999  0.11986216843821185  1.0000
  C   C30       1.0  0.9010542595373475  0.4227081415959837  0.620035860693081  1.0000
  C   C31       1.0  0.4002391177402281  0.07724174700362392  0.8795584861911543  1.0000
  C   C32       1.0  0.09927945782841853  0.9228391004113299  0.3788489903293504  1.0000
  H   H13       1.0  0.454540240780768  0.46511142149834256  0.8018824458175846  1.0000
  H   H14       1.0  0.04522842497102458  0.5350245870342208  0.29931869436804104  1.0000
  H   H15       1.0  0.5459727142488832  0.9649156929480899  0.20096156281068278  1.0000
  H   H16       1.0  0.9550172107605074  0.03512192011840961  0.7011387746241889  1.0000
  H   H17       1.0  0.5461035615519587  0.5348560906052011  0.19927388183953348  1.0000
  H   H18       1.0  0.9555335505486365  0.4649129391055288  0.698745610121618  1.0000
  H   H19       1.0  0.45449016722392194  0.03506468064144707  0.8003178834067308  1.0000
  H   H20       1.0  0.04517321219225842  0.9650095718627814  0.29977028149126295  1.0000
  C   C33       1.0  0.3050046427545496  0.42878353446213474  0.08022781797214441  1.0000
  C   C34       1.0  0.19316011996276744  0.5713923184619799  0.5790490150333553  1.0000
  C   C35       1.0  0.6948839063262513  0.9288389549839484  0.921279197896528  1.0000
  C   C36       1.0  0.8069562105358263  0.07118673598867147  0.42122664002240534  1.0000
  C   C37       1.0  0.6949860614405035  0.5711438432527863  0.9198725416204379  1.0000
  C   C38       1.0  0.8071990078670495  0.4285175707768381  0.4194224077574534  1.0000
  C   C39       1.0  0.30551348707839965  0.07126928872279975  0.07962877699309176  1.0000
  C   C40       1.0  0.19374488853684108  0.9288328210741149  0.5788024093541058  1.0000
  H   H21       1.0  0.28333508968878685  0.4753846627800456  0.1600883549944774  1.0000
  H   H22       1.0  0.2141766348340438  0.5247948526657698  0.6591122255177329  1.0000
  H   H23       1.0  0.716729383224668  0.9755293734089379  0.8423096752382623  1.0000
  H   H24       1.0  0.7863492876462053  0.024543741872401898  0.3410326726229379  1.0000
  H   H25       1.0  0.7167773269763995  0.5244992786926632  0.8403580356238973  1.0000
  H   H26       1.0  0.7866442625303756  0.47506392594033486  0.3387486781487601  1.0000
  H   H27       1.0  0.28398111448482194  0.024636418789913902  0.15927176051192457  1.0000
  H   H28       1.0  0.2151191807926314  0.9754578424440609  0.6586834638857157  1.0000
  C   C41       1.0  0.23638040308891514  0.3745993602700461  0.17748796161659872  1.0000
  C   C42       1.0  0.2617111108428847  0.6255541850015003  0.6765610279797275  1.0000
  C   C43       1.0  0.7632266317975644  0.8747331380645292  0.8230285793533436  1.0000
  C   C44       1.0  0.7382518650637245  0.12525674878879095  0.3237467396894798  1.0000
  C   C45       1.0  0.7632873934787838  0.625330849957306  0.82204641968018  1.0000
  C   C46       1.0  0.7383951847642796  0.3743255155662427  0.3224381090102337  1.0000
  C   C47       1.0  0.23695953457982755  0.12540487146030133  0.17731572819131722  1.0000
  C   C48       1.0  0.26229563326939764  0.8747222590295344  0.6762174169969541  1.0000
  H   H29       1.0  0.16002368779620085  0.37819428689455986  0.3329415345153128  1.0000
  H   H30       1.0  0.33726911799504244  0.6219558859342373  0.8325614054499334  1.0000
  H   H31       1.0  0.8398580139173671  0.8785325586043494  0.6678795394733325  1.0000
  H   H32       1.0  0.6625726986717386  0.12157510263749739  0.16788629742732783  1.0000
  H   H33       1.0  0.8396933065381905  0.6216646785696655  0.6666257067221019  1.0000
  H   H34       1.0  0.6627468061019073  0.3778847647245114  0.16653344891207095  1.0000
  H   H35       1.0  0.16077022516595205  0.12177872098196672  0.3329501392180504  1.0000
  H   H36       1.0  0.33819646763349187  0.8784196721575398  0.831853944545379  1.0000
