data_cif

_audit_creation_method             'generated by GULP'

_symmetry_space_group_name_H-M     'P 1             '
_symmetry_Int_Tables_number        1
_symmetry_cell_setting             Triclinic   

_cell_length_a                       8.673368
_cell_length_b                      20.308353
_cell_length_c                       5.271975
_cell_angle_alpha                   90.007402
_cell_angle_beta                    90.000122
_cell_angle_gamma                   89.999895

loop_
_atom_site_label
_atom_site_fract_x
_atom_site_fract_y
_atom_site_fract_z
_atom_site_occupancy
  S3          0.13502      0.24993      0.20833  1.0000
  S3          0.37621      0.77274      0.70833  1.0000
  S3          0.63502      0.27270      0.26302  1.0000
  S3          0.87621      0.74989      0.76300  1.0000
  N5          0.33638      0.26070      0.72735  1.0000
  N5          0.17486      0.76192      0.22734  1.0000
  N5          0.83638      0.26193      0.74400  1.0000
  N5          0.67486      0.76071      0.24399  1.0000
  H2          0.35749      0.26435      0.53930  1.0000
  H2          0.15374      0.75825      0.03930  1.0000
  H2          0.85749      0.25828      0.93205  1.0000
  H2          0.65374      0.76438      0.43203  1.0000
  C1          0.23827      0.31978      0.09729  1.0000
  C1          0.27297      0.70287      0.59731  1.0000
  C1          0.73827      0.20284      0.37406  1.0000
  C1          0.77298      0.81976      0.87402  1.0000
  C1          0.76639      0.68678      0.91079  1.0000
  C1          0.74484      0.33582      0.41077  1.0000
  C1          0.26639      0.83584      0.56054  1.0000
  C1          0.24484      0.18681      0.06057  1.0000
  C1          0.32603      0.31763      0.87276  1.0000
  C1          0.18521      0.70500      0.37278  1.0000
  C1          0.82603      0.20500      0.59859  1.0000
  C1          0.68521      0.81763      0.09854  1.0000
  C1          0.68017      0.69876      0.13222  1.0000
  C1          0.83106      0.32387      0.63221  1.0000
  C1          0.18017      0.82387      0.33911  1.0000
  C1          0.33106      0.19876      0.83914  1.0000
  C1          0.40100      0.37448      0.78532  1.0000
  C1          0.11024      0.64815      0.28538  1.0000
  C1          0.90100      0.14815      0.68603  1.0000
  C1          0.61024      0.87448      0.18595  1.0000
  C1          0.60137      0.64702      0.25138  1.0000
  C1          0.90987      0.37562      0.75133  1.0000
  C1          0.10137      0.87561      0.21995  1.0000
  C1          0.40987      0.14700      0.72002  1.0000
  H4          0.46778      0.37277      0.61130  1.0000
  H4          0.04345      0.64984      0.11135  1.0000
  H4          0.96778      0.14986      0.86006  1.0000
  H4          0.54345      0.87279      0.35997  1.0000
  H4          0.53792      0.65617      0.42505  1.0000
  H4          0.97334      0.36649      0.92500  1.0000
  H4          0.03792      0.86646      0.04628  1.0000
  H4          0.47334      0.15614      0.54635  1.0000
  C1          0.38923      0.43354      0.92170  1.0000
  C1          0.12200      0.58910      0.42178  1.0000
  C1          0.88923      0.08909      0.54965  1.0000
  C1          0.62201      0.93353      0.04955  1.0000
  C1          0.60497      0.58348      0.14747  1.0000
  C1          0.90627      0.43915      0.64740  1.0000
  C1          0.10497      0.93914      0.32386  1.0000
  C1          0.40627      0.08348      0.82394  1.0000
  H4          0.44662      0.47741      0.85190  1.0000
  H4          0.06460      0.54522      0.35200  1.0000
  H4          0.94663      0.04522      0.61946  1.0000
  H4          0.56461      0.97741      0.11932  1.0000
  H4          0.54333      0.54373      0.24088  1.0000
  H4          0.96791      0.47891      0.74078  1.0000
  H4          0.04333      0.97890      0.23045  1.0000
  H4          0.46792      0.04372      0.73056  1.0000
  C1          0.30345      0.43567      0.14734  1.0000
  C1          0.20779      0.58698      0.64741  1.0000
  C1          0.80345      0.08695      0.32401  1.0000
  C1          0.70780      0.93564      0.82392  1.0000
  C1          0.68900      0.57161      0.92447  1.0000
  C1          0.82223      0.45100      0.42439  1.0000
  C1          0.18900      0.95102      0.54687  1.0000
  C1          0.32223      0.07163      0.04695  1.0000
  H4          0.29547      0.48113      0.25477  1.0000
  H4          0.21578      0.54154      0.75486  1.0000
  H4          0.79547      0.04150      0.21658  1.0000
  H4          0.71578      0.98109      0.71647  1.0000
  H4          0.69224      0.52252      0.84342  1.0000
  H4          0.81899      0.50008      0.34332  1.0000
  H4          0.19224      0.00010      0.62791  1.0000
  H4          0.31899      0.02255      0.12802  1.0000
  C1          0.22760      0.37887      0.23414  1.0000
  C1          0.28364      0.64379      0.73418  1.0000
  C1          0.72761      0.14375      0.23721  1.0000
  C1          0.78365      0.87883      0.73715  1.0000
  C1          0.77017      0.62316      0.80731  1.0000
  C1          0.74105      0.39944      0.30727  1.0000
  C1          0.27017      0.89947      0.66402  1.0000
  C1          0.24106      0.12319      0.16407  1.0000
  H4          0.15987      0.38025      0.40737  1.0000
  H4          0.35138      0.64242      0.90740  1.0000
  H4          0.65987      0.14237      0.06398  1.0000
  H4          0.85139      0.88020      0.56393  1.0000
  H4          0.83617      0.61427      0.63566  1.0000
  H4          0.67504      0.40831      0.13563  1.0000
  H4          0.33618      0.90835      0.83567  1.0000
  H4          0.17504      0.11432      0.33572  1.0000
