data_image0
_chemical_formula_structural       S4N4H4C24H8C8H8C8H8C8H8
_chemical_formula_sum              "S4 N4 H36 C48"
_cell_length_a       7.9
_cell_length_b       20.937
_cell_length_c       5.8824
_cell_angle_alpha    90.0
_cell_angle_beta     90.0
_cell_angle_gamma    90.0

_space_group_name_H-M_alt    "P 1"
_space_group_IT_number       1

loop_
  _space_group_symop_operation_xyz
  'x, y, z'

loop_
  _atom_site_type_symbol
  _atom_site_label
  _atom_site_symmetry_multiplicity
  _atom_site_fract_x
  _atom_site_fract_y
  _atom_site_fract_z
  _atom_site_occupancy
  S   S1        1.0  0.137024711283882  0.24980009364664627  0.20411879882506134  1.0000
  S   S2        1.0  0.3629752897287654  0.7501999043277603  0.7041186985604755  1.0000
  S   S3        1.0  0.8629752979340194  0.7498000817822843  0.7958812211664784  1.0000
  S   S4        1.0  0.637024706184207  0.25019987964866747  0.29588121130614936  1.0000
  N   N1        1.0  0.3472329269289898  0.24987707302038628  0.7686142002683749  1.0000
  N   N2        1.0  0.15276712385719424  0.7501228574381315  0.2686142164009515  1.0000
  N   N3        1.0  0.6527671346210063  0.7498771416804176  0.23138570164789224  1.0000
  N   N4        1.0  0.847232942347573  0.25012289313531716  0.7313858457614203  1.0000
  H   H1        1.0  0.4131754113167858  0.24992618966194996  0.6190606508021484  1.0000
  H   H2        1.0  0.0868246758557629  0.7500737627709944  0.11906079106457944  1.0000
  H   H3        1.0  0.5868247072943036  0.7499262723164332  0.380939219929632  1.0000
  H   H4        1.0  0.9131753246033448  0.2500738427751856  0.8809393533409736  1.0000
  C   C1        1.0  0.24984541895351864  0.3149819541314628  0.08735362055255462  1.0000
  C   C2        1.0  0.25015468123643203  0.6850180106145045  0.5873533347134361  1.0000
  C   C3        1.0  0.7501546766822668  0.8149819947108818  0.9126462941564195  1.0000
  C   C4        1.0  0.7498455002864063  0.18501802939081263  0.4126463684821852  1.0000
  C   C5        1.0  0.7497613789369  0.684691669570483  0.9125610072918017  1.0000
  C   C6        1.0  0.7502385497568732  0.31530836628805176  0.41256082470665073  1.0000
  C   C7        1.0  0.25023853664564366  0.1846916107974232  0.08743923601749311  1.0000
  C   C8        1.0  0.24976134653333074  0.8153083034925511  0.5874390581795947  1.0000
  C   C9        1.0  0.3354814341504435  0.3086923567009492  0.8779758231451612  1.0000
  C   C10       1.0  0.16451871429682116  0.6913075536658899  0.37797587079056183  1.0000
  C   C11       1.0  0.6645186886737073  0.8086923833843799  0.12202410875448498  1.0000
  C   C12       1.0  0.8354813954455725  0.19130760736099506  0.6220242352056774  1.0000
  C   C13       1.0  0.6643550307373064  0.6910369313067692  0.1221048672531346  1.0000
  C   C14       1.0  0.8356449709166642  0.3089630831084417  0.6221048240884123  1.0000
  C   C15       1.0  0.33564500152166454  0.19103687777014022  0.8778950513994386  1.0000
  C   C16       1.0  0.1643548360094254  0.8089631120387538  0.3778952184348405  1.0000
  C   C17       1.0  0.40660220185243606  0.36347635937588413  0.779014754565147  1.0000
  C   C18       1.0  0.09339787876586501  0.636523545776931  0.27901463558997935  1.0000
  C   C19       1.0  0.5933978704926867  0.8634763858670986  0.22098520143953576  1.0000
  C   C20       1.0  0.9066022514758485  0.13652361164291166  0.7209852775122142  1.0000
  C   C21       1.0  0.5932012657027078  0.6363013741242564  0.22138777900735052  1.0000
  C   C22       1.0  0.9067986712064505  0.3636987056177856  0.7213875879402261  1.0000
  C   C23       1.0  0.40679864582763403  0.13630126239196977  0.7786123719682647  1.0000
  C   C24       1.0  0.09320135380902854  0.8636984958805515  0.2786121886270087  1.0000
  H   H5        1.0  0.47367335455924314  0.3592684511238753  0.6177666010180375  1.0000
  H   H6        1.0  0.026326505854733496  0.6407314992626393  0.11776664904153182  1.0000
  H   H7        1.0  0.5263266084947219  0.8592685129259886  0.3822331486247903  1.0000
  H   H8        1.0  0.9736734665651848  0.14073151069300727  0.882233452073676  1.0000
  H   H9        1.0  0.5265760123776033  0.640555504652171  0.38295849947282856  1.0000
  H   H10       1.0  0.9734239634496391  0.3594444630908381  0.8829584778558268  1.0000
  H   H11       1.0  0.4734240926073272  0.1405554756956768  0.617041584807841  1.0000
  H   H12       1.0  0.026576175264190066  0.8594444848870001  0.11704151929949214  1.0000
  C   C25       1.0  0.3911093054729755  0.42294767842771724  0.8838983361207244  1.0000
  C   C26       1.0  0.10889076669577437  0.5770524162897301  0.38389858111147507  1.0000
  C   C27       1.0  0.6088907609682601  0.9229477341879292  0.11610155120839882  1.0000
  C   C28       1.0  0.8911093808233452  0.07705234422567057  0.6161015671190481  1.0000
  C   C29       1.0  0.6084481158016073  0.576801428462655  0.11664690971580154  1.0000
  C   C30       1.0  0.8915517242122267  0.4231985068872344  0.6166469069183523  1.0000
  C   C31       1.0  0.3915518431746536  0.0768014639382372  0.88335312109027  1.0000
  C   C32       1.0  0.10844795567119254  0.9231986471458415  0.3833531095511836  1.0000
  H   H13       1.0  0.4462962088504024  0.4647210171063405  0.8017840122266239  1.0000
  H   H14       1.0  0.05370352805533064  0.5352789874739408  0.30178444398798976  1.0000
  H   H15       1.0  0.553703833709143  0.9647210040059484  0.19821569529779032  1.0000
  H   H16       1.0  0.9462963335856148  0.03527895264282836  0.6982158669398294  1.0000
  H   H17       1.0  0.5532922644374106  0.5350556354445083  0.198978781941445  1.0000
  H   H18       1.0  0.9467076756329325  0.46494438503066804  0.6989789834968211  1.0000
  H   H19       1.0  0.4467077487165017  0.035055578944837684  0.8010212149053803  1.0000
  H   H20       1.0  0.053292526204779575  0.9649443078073985  0.3010211126912131  1.0000
  C   C33       1.0  0.3081572402046232  0.42876431865956516  0.09254690051445179  1.0000
  C   C34       1.0  0.1918426044774911  0.5712355775644048  0.5925470555580656  1.0000
  C   C35       1.0  0.6918427041175789  0.9287643624953789  0.9074527604445881  1.0000
  C   C36       1.0  0.8081574420690877  0.07123562729311246  0.4074529223513124  1.0000
  C   C37       1.0  0.6911357842368226  0.5709253860477211  0.9078209350195455  1.0000
  C   C38       1.0  0.808864116643221  0.42907458901417483  0.4078208588947819  1.0000
  C   C39       1.0  0.30886420977081597  0.07092537171796685  0.09217918565706897  1.0000
  C   C40       1.0  0.1911358970373636  0.9290745933552098  0.5921793168022113  1.0000
  H   H21       1.0  0.29656883835497844  0.4750377796070118  0.17585231248259448  1.0000
  H   H22       1.0  0.2034310508914337  0.5249622619388731  0.6758525677006549  1.0000
  H   H23       1.0  0.703430944197423  0.9750377883922454  0.8241475588147212  1.0000
  H   H24       1.0  0.7965689163852994  0.02496223015840357  0.3241475631208441  1.0000
  H   H25       1.0  0.702472006402026  0.5246323765443167  0.8245962559761382  1.0000
  H   H26       1.0  0.7975280499743268  0.47536762604045296  0.32459622876736666  1.0000
  H   H27       1.0  0.2975280430562958  0.024632402375887614  0.175403912397269  1.0000
  H   H28       1.0  0.2024720408934038  0.9753676506492361  0.6754037209005805  1.0000
  C   C41       1.0  0.2391789331954312  0.3743758135673618  0.19489607733847322  1.0000
  C   C42       1.0  0.2608211386891672  0.6256242944146143  0.6948962000237692  1.0000
  C   C43       1.0  0.7608210867750621  0.8743757555760354  0.8051040258178757  1.0000
  C   C44       1.0  0.7391789046818108  0.12562421049671055  0.3051038598942127  1.0000
  C   C45       1.0  0.7600568209801009  0.6252734193296777  0.8051068073544471  1.0000
  C   C46       1.0  0.7399431210375467  0.37472652247307614  0.3051067144230719  1.0000
  C   C47       1.0  0.23994314629604221  0.1252734491934131  0.194893261649428  1.0000
  C   C48       1.0  0.2600567557985871  0.8747266306643576  0.6948933038335374  1.0000
  H   H29       1.0  0.1725742576112698  0.3781030798399957  0.3568430054158134  1.0000
  H   H30       1.0  0.32742536937709255  0.621896985257309  0.856842986751422  1.0000
  H   H31       1.0  0.82742553968884  0.878103105300089  0.6431569519649192  1.0000
  H   H32       1.0  0.6725743831705822  0.1218969504310362  0.14315697612911218  1.0000
  H   H33       1.0  0.8263732658835169  0.6214996005710797  0.6429579572946018  1.0000
  H   H34       1.0  0.6736266475679886  0.3785004425716988  0.14295779005808237  1.0000
  H   H35       1.0  0.17362680848904516  0.12149959295843261  0.3570422732354565  1.0000
  H   H36       1.0  0.3263734245612731  0.8785004753328605  0.8570420032042855  1.0000
