data_cif

_audit_creation_method             'generated by GULP'

_symmetry_space_group_name_H-M     'P 1             '
_symmetry_Int_Tables_number        1
_symmetry_cell_setting             Triclinic   

_cell_length_a                       5.671812
_cell_length_b                      13.235349
_cell_length_c                       7.805476
_cell_angle_alpha                   89.999773
_cell_angle_beta                   101.436790
_cell_angle_gamma                   89.999697

loop_
_atom_site_label
_atom_site_fract_x
_atom_site_fract_y
_atom_site_fract_z
_atom_site_occupancy
  N2          0.98130      0.62252      0.46170  1.0000
  N2          0.43806      0.12252      0.97722  1.0000
  N2          0.94631      0.39094      0.50126  1.0000
  N2          0.47305      0.89094      0.93767  1.0000
  O1          0.21869      0.71142      0.31393  1.0000
  O1          0.20068      0.21143      0.12498  1.0000
  O1          0.62043      0.29815      0.52386  1.0000
  O1          0.79893      0.79815      0.91507  1.0000
  N4          0.13621      0.70447      0.44668  1.0000
  N4          0.28315      0.20447      0.99224  1.0000
  N4          0.76010      0.32382      0.43052  1.0000
  N4          0.65926      0.82382      0.00842  1.0000
  N2          0.76243      0.52367      0.64443  1.0000
  N2          0.65693      0.02367      0.79449  1.0000
  N2          0.02869      0.49046      0.25984  1.0000
  N2          0.39067      0.99047      0.17909  1.0000
  O1          0.55851      0.43658      0.81768  1.0000
  O1          0.86083      0.93657      0.62124  1.0000
  O1          0.08725      0.57497      0.02060  1.0000
  O1          0.33212      0.07497      0.41832  1.0000
  N4          0.59970      0.51939      0.76028  1.0000
  N4          0.81966      0.01939      0.67864  1.0000
  N4          0.16350      0.51062      0.13038  1.0000
  N4          0.25587      0.01062      0.30855  1.0000
  O1          0.19206      0.76015      0.57334  1.0000
  O1          0.22730      0.26015      0.86558  1.0000
  O1          0.76398      0.28715      0.28707  1.0000
  O1          0.65538      0.78715      0.15187  1.0000
  C5          0.84169      0.62558      0.60153  1.0000
  C5          0.57768      0.12557      0.83739  1.0000
  C5          0.12939      0.42114      0.40212  1.0000
  C5          0.28997      0.92114      0.03681  1.0000
  H3          0.68428      0.67473      0.56004  1.0000
  H3          0.73509      0.17473      0.87888  1.0000
  H3          0.28112      0.45826      0.48844  1.0000
  H3          0.13824      0.95826      0.95049  1.0000
  H3          0.95221      0.65816      0.72039  1.0000
  H3          0.46715      0.15816      0.71854  1.0000
  H3          0.19784      0.35310      0.34773  1.0000
  H3          0.22152      0.85310      0.09121  1.0000
  O1          0.49381      0.59710      0.78463  1.0000
  O1          0.92557      0.09709      0.65430  1.0000
  O1          0.33340      0.45475      0.12366  1.0000
  O1          0.08597      0.95476      0.31528  1.0000
  C5          0.86321      0.56700      0.30394  1.0000
  C5          0.55615      0.06700      0.13498  1.0000
  C5          0.95113      0.44510      0.66602  1.0000
  C5          0.46823      0.94510      0.77291  1.0000
  H3          0.70191      0.52832      0.32874  1.0000
  H3          0.71745      0.02832      0.11018  1.0000
  H3          0.12730      0.48038      0.71150  1.0000
  H3          0.29206      0.98038      0.72742  1.0000
  H3          0.80444      0.61894      0.19436  1.0000
  H3          0.61492      0.11894      0.24457  1.0000
  H3          0.92562      0.39003      0.76590  1.0000
  H3          0.49374      0.89003      0.67303  1.0000
