data_image0
_chemical_formula_structural       N4O4N8O4N4O4C4H8O4C4H8
_chemical_formula_sum              "N16 O16 C8 H16"
_cell_length_a       6.594464486755057
_cell_length_b       10.941752240370807
_cell_length_c       7.5787813679575775
_cell_angle_alpha    90.08898476281483
_cell_angle_beta     103.4608308794823
_cell_angle_gamma    89.91580997607826

_space_group_name_H-M_alt    "P 1"
_space_group_IT_number       1

loop_
  _space_group_symop_operation_xyz
  'x, y, z'

loop_
  _atom_site_type_symbol
  _atom_site_label
  _atom_site_symmetry_multiplicity
  _atom_site_fract_x
  _atom_site_fract_y
  _atom_site_fract_z
  _atom_site_occupancy
  N   N1        1.0  0.9636517831445975  0.6238724292241585  0.4593172427752046  1.0000
  N   N2        1.0  0.5363268272075492  0.12363929731379367  0.04128789079166445  1.0000
  N   N3        1.0  0.03711937883887308  0.376314173505386  0.5389234827035092  1.0000
  N   N4        1.0  0.4627913899276621  0.8759721412651132  0.9604602746874606  1.0000
  O   O1        1.0  0.24831190009913787  0.7263584504925362  0.44264005349722807  1.0000
  O   O2        1.0  0.2519360860881618  0.22639427797542025  0.05935610653515285  1.0000
  O   O3        1.0  0.752831675495956  0.27365558972544674  0.5561018692659951  1.0000
  O   O4        1.0  0.7475770466593109  0.7732541645319907  0.9433260108284641  1.0000
  N   N5        1.0  0.11703840113291905  0.7067110538751274  0.5310491068882028  1.0000
  N   N6        1.0  0.38278674795469886  0.2067503755737631  0.9703547874971822  1.0000
  N   N7        1.0  0.8836630682345878  0.293423254449846  0.4673073059853679  1.0000
  N   N8        1.0  0.61642691107611  0.7931400666176054  0.03191551772375239  1.0000
  N   N9        1.0  0.8645234698977854  0.5165196817224961  0.698436161709154  1.0000
  N   N10       1.0  0.6357532673398044  0.015827535132282397  0.802005090407215  1.0000
  N   N11       1.0  0.13654134471445065  0.48407625191604936  0.30000478595676827  1.0000
  N   N12       1.0  0.36344591925072867  0.9838753851504772  0.19980650202708503  1.0000
  O   O5        1.0  0.7657584524790596  0.4217722720142466  0.9244691466675058  1.0000
  O   O6        1.0  0.7340678303794379  0.9210210304768929  0.5752908483859376  1.0000
  O   O7        1.0  0.23549279923873412  0.5789816821910292  0.0741347078322812  1.0000
  O   O8        1.0  0.2647899683103275  0.07885645813512246  0.4262074201961728  1.0000
  N   N13       1.0  0.7195389028818336  0.4927590497332809  0.7961892984358397  1.0000
  N   N14       1.0  0.780367462705924  0.9921473965009886  0.703661183347347  1.0000
  N   N15       1.0  0.2815677264459099  0.5078235198416462  0.2022059695913825  1.0000
  N   N16       1.0  0.21859446381510586  0.007802759764743872  0.29777252125303044  1.0000
  O   O9        1.0  0.11160589571108397  0.7514514827627586  0.6784071713748459  1.0000
  O   O10       1.0  0.38776053418256057  0.251741404223278  0.8232601343223054  1.0000
  O   O11       1.0  0.8887296889735592  0.24875541778892366  0.31984586072619386  1.0000
  O   O12       1.0  0.6113684070079631  0.748591880110386  0.1792511734011611  1.0000
  C   C1        1.0  0.8006298966632739  0.6049665617231307  0.5518370626709787  1.0000
  C   C2        1.0  0.6991264020323312  0.10462974101923955  0.9483973225464067  1.0000
  C   C3        1.0  0.19991288023398185  0.3952512689311025  0.4461916138423701  1.0000
  C   C4        1.0  0.2999326153661707  0.8951190356582427  0.05325335877357369  1.0000
  H   H1        1.0  0.6632803656897548  0.5707349688204658  0.4512514687077221  1.0000
  H   H2        1.0  0.8370695050634867  0.07093490356859648  0.04881987475024206  1.0000
  H   H3        1.0  0.33767083248099306  0.42900979963425057  0.5466782293637824  1.0000
  H   H4        1.0  0.1622807159016926  0.9291618815201773  0.9528608212826936  1.0000
  H   H5        1.0  0.7599247166276842  0.691335245012471  0.6100842908696731  1.0000
  H   H6        1.0  0.738787524396127  0.19096973857366042  0.8900190879572984  1.0000
  H   H7        1.0  0.23975662966599554  0.30890904635833255  0.38737363035351985  1.0000
  H   H8        1.0  0.2599419938725302  0.8088587589268669  0.11172550047820654  1.0000
  O   O13       1.0  0.5526947659320023  0.5485326310917873  0.7480982276607767  1.0000
  O   O14       1.0  0.9469149447549806  0.04804314953249561  0.751496417305645  1.0000
  O   O15       1.0  0.44833932818677036  0.4519727084721131  0.2502909379161134  1.0000
  O   O16       1.0  0.05178496263355569  0.9521522613976338  0.2495728766887728  1.0000
  C   C5        1.0  0.9645044932632693  0.5674588005079163  0.2866159659736253  1.0000
  C   C6        1.0  0.5356820286714739  0.066818866127524  0.2135233562838578  1.0000
  C   C7        1.0  0.036179176291706173  0.4328555851634023  0.7115083492414628  1.0000
  C   C8        1.0  0.46388364066626203  0.9324432567444703  0.7881608409317323  1.0000
  H   H9        1.0  0.8138318731791977  0.5196793034602601  0.2426926384269628  1.0000
  H   H10       1.0  0.6861068270065686  0.01851896154724356  0.2563590856441768  1.0000
  H   H11       1.0  0.18696501032135004  0.48044272399732896  0.7555566689549827  1.0000
  H   H12       1.0  0.3131500161727518  0.9802761622398095  0.7440501913706045  1.0000
  H   H13       1.0  0.9756008411410915  0.6362521093124023  0.18337420192794374  1.0000
  H   H14       1.0  0.5255372453462632  0.13529017749749697  0.3178167098738556  1.0000
  H   H15       1.0  0.0244919399161728  0.364167357309758  0.8147310563354596  1.0000
  H   H16       1.0  0.4756530256178802  0.8637283451126375  0.6846649890628799  1.0000
