data_C2H4N4O4
_audit_creation_method 'chmpy python library version 1.0a1'
_cell_length_a 5.754881
_cell_length_b 14.348427
_cell_length_c 6.214657
_cell_angle_alpha 90.0
_cell_angle_beta 117.84983600000001
_cell_angle_gamma 90.0
loop_
_symmetry_equiv_pos_site_id
_symmetry_equiv_pos_as_xyz
                   1 -x,-y,-z
                   2 +x,+y,+z
                   3 -x,1/2+y,1/2-z
                   4 +x,1/2-y,1/2+z
loop_
_atom_site_label
_atom_site_type_symbol
_atom_site_fract_x
_atom_site_fract_y
_atom_site_fract_z
_atom_site_occupancy
N N       0.985059000000       0.622966000000       0.451596000000       1.000000000000
O O       0.303148000000       0.723131000000       0.406939000000       1.000000000000
N N       0.194024000000       0.694263000000       0.554465000000       1.000000000000
N N       0.834142000000       0.512926000000       0.675199000000       1.000000000000
O O       0.651111000000       0.423760000000       0.865230000000       1.000000000000
N N       0.660908000000       0.500491000000       0.772778000000       1.000000000000
O O       0.112218000000       0.768453000000       0.650104000000       1.000000000000
C C       0.851864000000       0.608897000000       0.601863000000       1.000000000000
H H       0.649236000000       0.637471000000       0.500906000000       1.000000000000
H H       0.959636000000       0.651513000000       0.768953000000       1.000000000000
O O       0.523689000000       0.568483000000       0.773328000000       1.000000000000
C C       0.951248000000       0.554681000000       0.260913000000       1.000000000000
H H       0.763470000000       0.516630000000       0.203111000000       1.000000000000
H H       0.932499000000       0.595571000000       0.102320000000       1.000000000000
#END