data_image0
_chemical_formula_structural       N4O4N8O4N4O4C4H8O4C4H8
_chemical_formula_sum              "N16 O16 C8 H16"
_cell_length_a       6.5245
_cell_length_b       11.024
_cell_length_c       7.3619
_cell_angle_alpha    90.0
_cell_angle_beta     102.64200000000001
_cell_angle_gamma    90.0

_space_group_name_H-M_alt    "P 1"
_space_group_IT_number       1

loop_
  _space_group_symop_operation_xyz
  'x, y, z'

loop_
  _atom_site_type_symbol
  _atom_site_label
  _atom_site_symmetry_multiplicity
  _atom_site_fract_x
  _atom_site_fract_y
  _atom_site_fract_z
  _atom_site_occupancy
  N   N1        1.0  0.974737030543079  0.6248188792824892  0.46223318359886395  1.0000
  N   N2        1.0  0.5252629382264787  0.12481895615737627  0.03776674575320275  1.0000
  N   N3        1.0  0.025175978933626775  0.375316080566552  0.5381762993888773  1.0000
  N   N4        1.0  0.4748239894927164  0.8753160692022305  0.9618236347292728  1.0000
  O   O1        1.0  0.2644216879259294  0.7270034155279185  0.4396268113573091  1.0000
  O   O2        1.0  0.2355784378470348  0.22700339081693843  0.06037319044648699  1.0000
  O   O3        1.0  0.7354549414464862  0.2732340116116966  0.5608216788774382  1.0000
  O   O4        1.0  0.7645449166521232  0.7732340893097406  0.9391782240493661  1.0000
  N   N5        1.0  0.13306172530460653  0.7061131582019945  0.5348378806155932  1.0000
  N   N6        1.0  0.3669382584616842  0.20611324091737745  0.9651620339774409  1.0000
  N   N7        1.0  0.8672710264303806  0.2936536343815072  0.46592483131923046  1.0000
  N   N8        1.0  0.6327289028750295  0.7936536141716299  0.03407515162717999  1.0000
  N   N9        1.0  0.8556992682299168  0.5191786966433862  0.7048835250548183  1.0000
  N   N10       1.0  0.6443007146532471  0.019178651683046975  0.7951165041204021  1.0000
  N   N11       1.0  0.1443895250289906  0.48103714081255855  0.29576196539473465  1.0000
  N   N12       1.0  0.35561061991309817  0.981037029589551  0.2042382218904113  1.0000
  O   O5        1.0  0.7351083850962394  0.4213670726706716  0.9274928867537359  1.0000
  O   O6        1.0  0.7648915215319896  0.9213670798344274  0.5725072728741512  1.0000
  O   O7        1.0  0.26406662146561477  0.5784992741286126  0.0722993090515536  1.0000
  O   O8        1.0  0.2359333834306096  0.07849925815321938  0.4277005332844104  1.0000
  N   N13       1.0  0.6995878418613096  0.4947224036726643  0.7966987596701282  1.0000
  N   N14       1.0  0.8004121107425678  0.9947224403094029  0.7033012577803687  1.0000
  N   N15       1.0  0.3001311797108615  0.5053877304727876  0.20341106056739797  1.0000
  N   N16       1.0  0.19986879040407443  0.005387644441221973  0.2965889952528326  1.0000
  O   O9        1.0  0.13314742448788014  0.7485999124079996  0.6903221034829435  1.0000
  O   O10       1.0  0.36685243588757055  0.24859992375589304  0.8096778592230031  1.0000
  O   O11       1.0  0.8680182894504825  0.25037167185989806  0.3111297752199539  1.0000
  O   O12       1.0  0.6319814795404447  0.7503717474223797  0.188870128023376  1.0000
  C   C1        1.0  0.8045544847567226  0.6117936547385645  0.5560187513928805  1.0000
  C   C2        1.0  0.6954455642763993  0.11179365640183281  0.9439813206645332  1.0000
  C   C3        1.0  0.19546762203410378  0.38833518427362335  0.44455504715096694  1.0000
  C   C4        1.0  0.30453237586524073  0.8883352180328647  0.05544490655701295  1.0000
  H   H1        1.0  0.6649205486336575  0.5842171379565734  0.4524072949740314  1.0000
  H   H2        1.0  0.8350795093202407  0.08421713311952018  0.04759263042900315  1.0000
  H   H3        1.0  0.33502693752939383  0.4158329054841342  0.5483150242268073  1.0000
  H   H4        1.0  0.16497315501545173  0.9158328910527741  0.9516848884094025  1.0000
  H   H5        1.0  0.7737506236874702  0.6983325188289629  0.6179394605477808  1.0000
  H   H6        1.0  0.7262493440192492  0.19833263552213384  0.8820605599049607  1.0000
  H   H7        1.0  0.22628671655417393  0.30188212627512234  0.3824220262371819  1.0000
  H   H8        1.0  0.27371336329225004  0.8018821594750924  0.11757817940503758  1.0000
  O   O13       1.0  0.5322913453262669  0.5522208384619561  0.7426264378772066  1.0000
  O   O14       1.0  0.9677084683521782  0.052220810709249964  0.7573735906366494  1.0000
  O   O15       1.0  0.4675674233437484  0.4480274219912453  0.25726688527601926  1.0000
  O   O16       1.0  0.03243255154353752  0.9480274587496217  0.24273315468748394  1.0000
  C   C5        1.0  0.9736717667150625  0.5675012915028106  0.28340008020802987  1.0000
  C   C6        1.0  0.526328182002026  0.06750130603547208  0.21659993996321467  1.0000
  C   C7        1.0  0.026136812665609414  0.4325636004940027  0.7170795198413278  1.0000
  C   C8        1.0  0.47386318304815606  0.9325635099845727  0.7829204170664846  1.0000
  H   H9        1.0  0.8212937693234147  0.5220574110926531  0.24011755624563755  1.0000
  H   H10       1.0  0.6787059449543934  0.022057346674296936  0.2598824250943582  1.0000
  H   H11       1.0  0.178524952134526  0.4779172627907275  0.7607911781721285  1.0000
  H   H12       1.0  0.32147525657955595  0.9779173034780235  0.7392090029405001  1.0000
  H   H13       1.0  0.9883222675403887  0.6344155673975285  0.17718464494574673  1.0000
  H   H14       1.0  0.5116777636075877  0.13441558867788123  0.3228154052259924  1.0000
  H   H15       1.0  0.010803423502616025  0.36559995553767327  0.8230120882564955  1.0000
  H   H16       1.0  0.48919658490745677  0.8655998664009803  0.6769877721390395  1.0000
