data_OCHTET15.b3lyp.6-311G**.dma4.-301.8197.2.0019
_audit_creation_method 'generated by cspy2.0'
_cell_length_a 6.0413
_cell_length_b 12.7146
_cell_length_c 6.4416
_cell_angle_alpha 90.0
_cell_angle_beta 83.1994
_cell_angle_gamma 90.0
loop_
_symmetry_equiv_pos_site_id
_symmetry_equiv_pos_as_xyz
1 +x,+y,+z
loop_
_atom_site_label
_atom_site_type_symbol
_atom_site_fract_x
_atom_site_fract_y
_atom_site_fract_z
_atom_site_occupancy
N1 N       0.987865360000       0.601801480000       0.574642910000       1.000000000000
N2 N       1.012134640000       0.398198520000       0.425357090000       1.000000000000
N3 N       1.129773160000       0.638424570000       0.709949750000       1.000000000000
N4 N       0.870226840000       0.361575430000       0.290050250000       1.000000000000
N5 N       0.768058210000       0.459508980000       0.724340620000       1.000000000000
N6 N       1.231941790000       0.540491020000       0.275659380000       1.000000000000
N7 N       0.564540590000       0.417853700000       0.792726540000       1.000000000000
N8 N       1.435459410000       0.582146300000       0.207273460000       1.000000000000
N9 N       0.512134640000       0.101801480000       0.925357090000       1.000000000000
N10 N       0.487865360000      -0.101801480000       1.074642910000       1.000000000000
N11 N       0.370226850000       0.138424580000       0.790050250000       1.000000000000
N12 N       0.629773150000      -0.138424580000       1.209949750000       1.000000000000
N13 N       0.731941790000      -0.040491020000       0.775659380000       1.000000000000
N14 N       0.268058210000       0.040491020000       1.224340620000       1.000000000000
N15 N       0.935459410000      -0.082146310000       0.707273460000       1.000000000000
N16 N       0.064540590000       0.082146310000       1.292726540000       1.000000000000
O1 O       1.305984500000       0.677016680000       0.629918470000       1.000000000000
O2 O       0.694015500000       0.322983320000       0.370081530000       1.000000000000
O3 O       0.553264670000       0.326351710000       0.849451740000       1.000000000000
O4 O       1.446735330000       0.673648290000       0.150548260000       1.000000000000
O5 O       1.071669130000       0.626308940000       0.895800070000       1.000000000000
O6 O       0.928330870000       0.373691060000       0.104199930000       1.000000000000
O7 O       1.593246820000       0.520646100000       0.201742070000       1.000000000000
O8 O       0.406753180000       0.479353900000       0.798257930000       1.000000000000
O9 O       0.194015510000       0.177016680000       0.870081530000       1.000000000000
O10 O       0.805984490000      -0.177016680000       1.129918470000       1.000000000000
O11 O       0.946735330000      -0.173648290000       0.650548260000       1.000000000000
O12 O       0.053264670000       0.173648290000       1.349451740000       1.000000000000
O13 O       0.428330870000       0.126308940000       0.604199930000       1.000000000000
O14 O       0.571669130000      -0.126308940000       1.395800070000       1.000000000000
O15 O      -0.093246820000       0.020646100000       1.298257930000       1.000000000000
O16 O       1.093246820000      -0.020646100000       0.701742070000       1.000000000000
C1 C       1.231971890000       0.429181290000       0.338481950000       1.000000000000
C2 C       0.768028110000       0.570818710000       0.661518050000       1.000000000000
C3 C       0.946338990000       0.387014560000       0.648717500000       1.000000000000
C4 C       1.053661010000       0.612985440000       0.351282500000       1.000000000000
C5 C       0.268028110000      -0.070818710000       1.161518050000       1.000000000000
C6 C       0.731971890000       0.070818710000       0.838481950000       1.000000000000
C7 C       0.553661000000      -0.112985440000       0.851282500000       1.000000000000
C8 C       0.446339000000       0.112985440000       1.148717500000       1.000000000000
H1 H       0.662777090000       0.581184970000       0.556693580000       1.000000000000
H2 H       1.337222910000       0.418815030000       0.443306420000       1.000000000000
H3 H       1.282016110000       0.384873280000       0.215319760000       1.000000000000
H4 H       0.717983890000       0.615126720000       0.784680240000       1.000000000000
H5 H       1.076135620000       0.400844780000       0.719855430000       1.000000000000
H6 H       0.923864380000       0.599155220000       0.280144570000       1.000000000000
H7 H       1.107189020000       0.683398330000       0.313502910000       1.000000000000
H8 H       0.892810980000       0.316601670000       0.686497090000       1.000000000000
H9 H       0.837222910000       0.081184970000       0.943306420000       1.000000000000
H10 H       0.162777090000      -0.081184970000       1.056693580000       1.000000000000
H11 H       0.217983890000      -0.115126720000       1.284680240000       1.000000000000
H12 H       0.782016110000       0.115126720000       0.715319760000       1.000000000000
H13 H       0.423864380000      -0.099155220000       0.780144570000       1.000000000000
H14 H       0.576135620000       0.099155220000       1.219855430000       1.000000000000
H15 H       0.392810980000       0.183398330000       1.186497090000       1.000000000000
H16 H       0.607189020000      -0.183398330000       0.813502910000       1.000000000000
#END