# CIF file generated from CASTEP cell file
# https://gist.github.com/blake-armstrong/93facdde07a6e0a1ddb51857dd48e3f1
# Structure converted from CASTEP

data_structure

_cell_length_a    6.639574441887732
_cell_length_b    11.110228024517800
_cell_length_c    7.504522567395386
_cell_angle_alpha 90.000000000000000
_cell_angle_beta  103.362803240926027
_cell_angle_gamma 90.000000000000000

_symmetry_space_group_name_H-M 'P 1'
_symmetry_Int_Tables_number 1

loop_
_atom_site_label
_atom_site_type_symbol
_atom_site_fract_x
_atom_site_fract_y
_atom_site_fract_z
H1       H     0.669101059540623    0.581491364821571    0.451104798589211
H2       H     0.775997185014490    0.696461459214808    0.611954062894598
H3       H     0.821492572448207    0.521962482312258    0.240575135381561
H4       H     0.987949098924300    0.633053212087822    0.182114325885279
H5       H     0.830898881519310    0.081491364821571    0.048895308768133
H6       H     0.724002756045443    0.196461459214808   -0.111953955537254
H7       H     0.678507368611726    0.021962482312258    0.259424971975783
H8       H     0.512050842135633    0.133053212087823    0.317885781472065
H9       H     1.330898881519307    0.418508635178429    0.548895308768133
H10      H     1.224002756045443    0.303538540785192    0.388046044462746
H11      H     1.178507368611726    0.478037517687742    0.759424971975783
H12      H     1.012050842135631    0.366946787912177    0.817885781472065
H13      H     0.169101059540625   -0.081491364821571   -0.048895201410789
H14      H     0.275997185014489   -0.196461459214808    0.111954062894598
H15      H     0.321492572448207   -0.021962482312258   -0.259424864618439
H16      H     0.487949098924301   -0.133053212087823   -0.317885674114721
C1       C     0.806734176906592    0.610297467036640    0.552922107859689
C2       C     0.971943006891358    0.566495692584188    0.285187095960089
C3       C     0.693265764153341    0.110297467036640   -0.052922000502345
C4       C     0.528056934168575    0.066495692584188    0.214813011397255
C5       C     1.193265764153341    0.389702532963360    0.447077999497655
C6       C     1.028056934168578    0.433504307415812    0.714813011397255
C7       C     0.306734176906591   -0.110297467036640    0.052922107859690
C8       C     0.471943006891357   -0.066495692584188   -0.214812904039911
N1       N     0.973599760555841    0.623059269801465    0.461200488267854
N2       N     1.131530454770904    0.704087310629508    0.533690542124092
N3       N     0.860233948958568    0.519822619884044    0.701952588555669
N4       N     0.706889004692938    0.495281763032930    0.793026852994719
N5       N     0.526400180504092    0.123059269801465    0.038799619089490
N6       N     0.368469486289029    0.204087310629508   -0.033690434766748
N7       N     0.639765992101364    0.019822619884044   -0.201952481198324
N8       N     0.793110936366995   -0.004718236967070   -0.293026745637375
N9       N     1.026400180504092    0.376940730198536    0.538799619089490
N10      N     0.868469486289029    0.295912689370492    0.466309565233252
N11      N     1.139765992101368    0.480177380115957    0.298047518801676
N12      N     1.293110936366997    0.504718236967069    0.206973254362625
N13      N     0.473599760555841   -0.123059269801465   -0.038799511732145
N14      N     0.631530454770904   -0.204087310629508    0.033690542124093
N15      N     0.360233948958568   -0.019822619884044    0.201952588555668
N16      N     0.206889004692938    0.004718236967070    0.293026852994719
O1       O     1.260227015087785    0.723064963100974    0.441531256530220
O2       O     0.744367683730663    0.422724806463188    0.921035889837812
O3       O     1.131562833308013    0.746944051998586    0.685011590662746
O4       O     0.542797111093767    0.552443672583381    0.740554426603483
O5       O     0.239772925972148    0.223064963100974    0.058468850827125
O6       O     0.755632257329270   -0.077275193536812   -0.421035782480467
O7       O     0.368437107751920    0.246944051998586   -0.185011483305402
O8       O     0.957202829966165    0.052443672583381   -0.240554319246138
O9       O     0.739772925972148    0.276935036899026    0.558468850827125
O10      O     1.255632257329271    0.577275193536813    0.078964217519534
O11      O     0.868437107751920    0.253055948001414    0.314988516694598
O12      O     1.457202829966166    0.447556327416619    0.259445680753862
O13      O     0.760227015087785   -0.223064963100974   -0.058468743469780
O14      O     0.244367683730662    0.077275193536812    0.421035889837811
O15      O     0.631562833308013   -0.246944051998586    0.185011590662746
O16      O     0.042797111093768   -0.052443672583381    0.240554426603483
