data_image0
_chemical_formula_structural       C12H4C4H4N4H8N4O4C4H4O4C4H4
_chemical_formula_sum              "C24 H24 N8 O8"
_cell_length_a       20.090324825298275
_cell_length_b       6.543806742779714
_cell_length_c       4.95654089435618
_cell_angle_alpha    89.98172344911531
_cell_angle_beta     90.00455772886654
_cell_angle_gamma    90.039615288146

_space_group_name_H-M_alt    "P 1"
_space_group_IT_number       1

loop_
  _space_group_symop_operation_xyz
  'x, y, z'

loop_
  _atom_site_type_symbol
  _atom_site_label
  _atom_site_symmetry_multiplicity
  _atom_site_fract_x
  _atom_site_fract_y
  _atom_site_fract_z
  _atom_site_occupancy
  C   C1        1.0  0.6232203327851357  0.20761325703600236  0.7261080024038543  1.0000
  C   C2        1.0  0.37675826396344814  0.7956039600286591  0.22556385598880171  1.0000
  C   C3        1.0  0.12317777863847341  0.7934854716876896  0.7262835137658802  1.0000
  C   C4        1.0  0.8767648152343683  0.20328710291354057  0.22904821572768722  1.0000
  C   C5        1.0  0.6568709153733469  0.5182804842518333  0.506479534120039  1.0000
  C   C6        1.0  0.3432745466817211  0.4847562975226422  0.00602573348881102  1.0000
  C   C7        1.0  0.15670729704838687  0.48315822815512127  0.506061363536467  1.0000
  C   C8        1.0  0.8432144114724878  0.5139632274448263  0.00935570786902479  1.0000
  C   C9        1.0  0.6700798851393257  0.3614814160308173  0.6917225398567802  1.0000
  C   C10       1.0  0.3298986720597457  0.6418507303031844  0.1905293703790539  1.0000
  C   C11       1.0  0.17009533541488936  0.640178782511172  0.6907674047550277  1.0000
  C   C12       1.0  0.8299233706330849  0.35695492035120485  0.19433891501544479  1.0000
  H   H1        1.0  0.7162521066099862  0.3592254440395545  0.8084299062731213  1.0000
  H   H2        1.0  0.2835809724035962  0.6445451250576067  0.3062359251424361  1.0000
  H   H3        1.0  0.21644893884487937  0.6430118438192398  0.8062670519273263  1.0000
  H   H4        1.0  0.7836908903446832  0.3543573056736756  0.3106198224684622  1.0000
  C   C13       1.0  0.5968263064612271  0.5125738053173233  0.36063315566452714  1.0000
  C   C14       1.0  0.40352054634982515  0.4902299850180956  0.8614629850745902  1.0000
  C   C15       1.0  0.09644912384713425  0.48827677233898675  0.3615771409420306  1.0000
  C   C16       1.0  0.9033593909917252  0.508516281228907  0.8640681346302206  1.0000
  H   H5        1.0  0.5865831960057022  0.6346074155740846  0.21536336592764813  1.0000
  H   H6        1.0  0.41396362516760193  0.3680565603478773  0.7166872650598884  1.0000
  H   H7        1.0  0.08603667846434879  0.36602792035141674  0.21682655006615925  1.0000
  H   H8        1.0  0.913748302318595  0.6308393697071663  0.7193277316345167  1.0000
  N   N1        1.0  0.7032382301815628  0.6711611607471325  0.4617536553218315  1.0000
  N   N2        1.0  0.29690020598955946  0.33204225607513  0.960811775084317  1.0000
  N   N3        1.0  0.20310471427173357  0.33071381004559647  0.46089102355576217  1.0000
  N   N4        1.0  0.7969091567560804  0.666705173709792  0.9647467991443889  1.0000
  H   H9        1.0  0.6852955207924071  0.8047922085628378  0.3824966011615139  1.0000
  H   H10       1.0  0.31487765430177644  0.1985133041193803  0.8814688938294544  1.0000
  H   H11       1.0  0.1852129871419739  0.19690611646170111  0.3818575055196986  1.0000
  H   H12       1.0  0.8148536964852051  0.800263323349206  0.885110617188944  1.0000
  H   H13       1.0  0.7370127691474972  0.6903645038933471  0.6161830267943978  1.0000
  H   H14       1.0  0.2629844445381776  0.31282104923981424  0.11487740781549732  1.0000
  H   H15       1.0  0.23707086131809074  0.31194674317605  0.614863960568205  1.0000
  H   H16       1.0  0.7629884379060974  0.6856648902012588  0.11887624729931211  1.0000
  N   N5        1.0  0.6364650269795054  0.04801617135561762  0.9242218474890941  1.0000
  N   N6        1.0  0.3633210420480148  0.9555495565750238  0.422845061724668  1.0000
  N   N7        1.0  0.1365771049301011  0.9530060979125873  0.9243621329777567  1.0000
  N   N8        1.0  0.8634509227075091  0.04358665396976387  0.42700518582892166  1.0000
  O   O1        1.0  0.5957182899658021  0.9076127349264275  0.9443812175402964  1.0000
  O   O2        1.0  0.4039795407313691  0.09621279842208154  0.44298644219581884  1.0000
  O   O3        1.0  0.0956066214899312  0.09243953880700814  0.946635434096405  1.0000
  O   O4        1.0  0.9041996426351983  0.9034312958014793  0.44780549310150786  1.0000
  C   C17       1.0  0.5635578132134536  0.1993974946455417  0.583226093439095  1.0000
  C   C18       1.0  0.43659254801810393  0.8035853245178823  0.08389982779299256  1.0000
  C   C19       1.0  0.06331798719498997  0.8011324091912985  0.584739621392998  1.0000
  C   C20       1.0  0.936471162520508  0.19531256532866348  0.08658466351824806  1.0000
  H   H17       1.0  0.5280293736515616  0.07605380211825308  0.6180303399935149  1.0000
  H   H18       1.0  0.4720889530974731  0.9269512642275103  0.11892936854043755  1.0000
  H   H19       1.0  0.027740384658143002  0.9240375610627655  0.6203807442204455  1.0000
  H   H20       1.0  0.9719825889670808  0.07208838074408068  0.12150796917191106  1.0000
  O   O5        1.0  0.6872114065816213  0.05988861760324263  0.06404470875914521  1.0000
  O   O6        1.0  0.3124763871151438  0.9435809402190909  0.5621126834795032  1.0000
  O   O7        1.0  0.18766207797667328  0.9418037182416821  0.06221445912080401  1.0000
  O   O8        1.0  0.8125681176551405  0.05508640335508875  0.566070328423712  1.0000
  C   C21       1.0  0.5512055228784868  0.3553124433169591  0.39915574251093777  1.0000
  C   C22       1.0  0.449103287651343  0.6474866369704255  0.9004346037844723  1.0000
  C   C23       1.0  0.0508258308524394  0.6451935702989533  0.40089653992657065  1.0000
  C   C24       1.0  0.9489252844264136  0.3513318756878333  0.9026979915861666  1.0000
  H   H21       1.0  0.5046648363130263  0.35477332421085656  0.2841286780668689  1.0000
  H   H22       1.0  0.49571062952280415  0.6480893529251305  0.7859397999131709  1.0000
  H   H23       1.0  0.004167749844890723  0.6454709327655267  0.2866966779676094  1.0000
  H   H24       1.0  0.9954974224630625  0.3507782241925243  0.78791157127008  1.0000
