data_image0
_chemical_formula_structural       C12H4C4H4N4H8N4O4C4H4O4C4H4
_chemical_formula_sum              "C24 H24 N8 O8"
_cell_length_a       19.361
_cell_length_b       6.5022
_cell_length_c       5.0683
_cell_angle_alpha    90.0
_cell_angle_beta     90.0
_cell_angle_gamma    90.0

_space_group_name_H-M_alt    "P 1"
_space_group_IT_number       1

loop_
  _space_group_symop_operation_xyz
  'x, y, z'

loop_
  _atom_site_type_symbol
  _atom_site_label
  _atom_site_symmetry_multiplicity
  _atom_site_fract_x
  _atom_site_fract_y
  _atom_site_fract_z
  _atom_site_occupancy
  C   C1        1.0  0.6231943273128537  0.2275056841363766  0.7264544818817028  1.0000
  C   C2        1.0  0.3768057448101767  0.7724942437360547  0.22645457282090514  1.0000
  C   C3        1.0  0.12302175137962924  0.7731295658609658  0.7278238190842916  1.0000
  C   C4        1.0  0.876978354374262  0.2268706703379101  0.22782352583641968  1.0000
  C   C5        1.0  0.6540694598681026  0.5464957428729813  0.5139406683046752  1.0000
  C   C6        1.0  0.3459304994098546  0.4535044154946615  0.01394103090725494  1.0000
  C   C7        1.0  0.15405852723485006  0.4543947588003837  0.5149839225917613  1.0000
  C   C8        1.0  0.8459415076790467  0.5456054784236507  0.01498390963792643  1.0000
  C   C9        1.0  0.6682958695123757  0.3935538438072751  0.7024633887619405  1.0000
  C   C10       1.0  0.3317040687034933  0.6064459076478963  0.20246322704802922  1.0000
  C   C11       1.0  0.16816120140203072  0.6071691440087902  0.703806092564718  1.0000
  C   C12       1.0  0.8318387620156185  0.3928307809104094  0.20380588767063348  1.0000
  H   H1        1.0  0.713559324890669  0.4030474150715379  0.8288331516950719  1.0000
  H   H2        1.0  0.2864406350077935  0.5969522375666537  0.3288333008967598  1.0000
  H   H3        1.0  0.21341010298568616  0.5977797194756241  0.8302635415966955  1.0000
  H   H4        1.0  0.7865898367553222  0.40222009633218614  0.3302636158194015  1.0000
  C   C13       1.0  0.5944274130453884  0.5247137961418006  0.35564003065974414  1.0000
  C   C14       1.0  0.40557253026159096  0.4752858625702496  0.8556398847923568  1.0000
  C   C15       1.0  0.09443623144449623  0.4761213041646562  0.35652817826904504  1.0000
  C   C16       1.0  0.9055637268612186  0.5238787960188142  0.8565282400603188  1.0000
  H   H5        1.0  0.5831599171148779  0.6424342812057516  0.20903026007031336  1.0000
  H   H6        1.0  0.4168400244958535  0.3575656904988459  0.7090304955628302  1.0000
  H   H7        1.0  0.08328201709577022  0.35855856579272044  0.20958789392369123  1.0000
  H   H8        1.0  0.9167179994990554  0.6414414275542688  0.7095876104888104  1.0000
  N   N1        1.0  0.6990070183150454  0.709767459452836  0.4776097763929101  1.0000
  N   N2        1.0  0.3009929442408638  0.29023248207287344  0.9776092562000015  1.0000
  N   N3        1.0  0.19906038487012598  0.29133485650338115  0.4783080403856426  1.0000
  N   N4        1.0  0.8009396024152247  0.7086652805198385  0.9783079409759655  1.0000
  H   H9        1.0  0.6798179157136307  0.8381030838452862  0.3887463064858495  1.0000
  H   H10       1.0  0.3201821052733701  0.16189703898694086  0.888746491003739  1.0000
  H   H11       1.0  0.1799619805951015  0.16316490343828907  0.3887397366363926  1.0000
  H   H12       1.0  0.820037963953907  0.8368355020752669  0.8887395292732874  1.0000
  H   H13       1.0  0.7324568117030466  0.737379107458505  0.6293189228764897  1.0000
  H   H14       1.0  0.2675432021300862  0.2626207783939093  0.1293189313981015  1.0000
  H   H15       1.0  0.23248830438567936  0.26347127099383233  0.6300500681775835  1.0000
  H   H16       1.0  0.7675116795377183  0.7365285965320301  0.13005008971422183  1.0000
  N   N5        1.0  0.6375928211796474  0.07219810820031976  0.9280238619004701  1.0000
  N   N6        1.0  0.36240719420802475  0.9278017561135955  0.4280242497324972  1.0000
  N   N7        1.0  0.1374276982512952  0.9285690913283234  0.929096111733515  1.0000
  N   N8        1.0  0.8625724127819553  0.07143108260666356  0.42909609147059663  1.0000
  O   O1        1.0  0.5959194723767262  0.9274642437750618  0.9536216813641057  1.0000
  O   O2        1.0  0.40408042404924466  0.0725355954626893  0.453621793802167  1.0000
  O   O3        1.0  0.09587627821505709  0.07369757727720239  0.954057930643873  1.0000
  O   O4        1.0  0.9041238374303521  0.9263021433289402  0.45405807199310966  1.0000
  C   C17       1.0  0.5642591415127954  0.20341695197443704  0.5703209153231781  1.0000
  C   C18       1.0  0.4357408147418882  0.7965826664716802  0.07032053402627696  1.0000
  C   C19       1.0  0.06406805469115419  0.7970244676090302  0.5717334292082894  1.0000
  C   C20       1.0  0.9359319031900508  0.20297584989920403  0.07173311370668947  1.0000
  H   H17       1.0  0.5303298675220904  0.07189297130851828  0.5955026478084192  1.0000
  H   H18       1.0  0.46967006643492315  0.9281072027812053  0.0955025116899031  1.0000
  H   H19       1.0  0.030081568059182145  0.9284110710275827  0.5969662065687423  1.0000
  H   H20       1.0  0.9699184486136319  0.07158898761120061  0.09696625192064555  1.0000
  O   O5        1.0  0.690299646944686  0.09037276354361883  0.06718887883461357  1.0000
  O   O6        1.0  0.3097003125421453  0.9096272546556468  0.5671889611977251  1.0000
  O   O7        1.0  0.19005573436585788  0.9102056793452356  0.0686817935879721  1.0000
  O   O8        1.0  0.8099444193871551  0.08979451657819357  0.5686811326934086  1.0000
  C   C21       1.0  0.5507384212950512  0.3559165455781041  0.38404569241976044  1.0000
  C   C22       1.0  0.449261614947858  0.6440836078838454  0.884045851332159  1.0000
  C   C23       1.0  0.05063701027107861  0.6446051054852082  0.3852522742611095  1.0000
  C   C24       1.0  0.9493629850929678  0.3553952849066538  0.8852524760234899  1.0000
  H   H21       1.0  0.5050145380261786  0.34370362448333025  0.25946441533616643  1.0000
  H   H22       1.0  0.4949854865782282  0.6562964430312161  0.7594643154693126  1.0000
  H   H23       1.0  0.004902918678911462  0.656704020910145  0.2607166889935697  1.0000
  H   H24       1.0  0.9950971597921819  0.34329619070709283  0.7607167405915981  1.0000
