data_MNIANL05.b3lyp.6-311G**.dma4.-130.95.1.3721
_audit_creation_method 'generated by cspy2.0'
_cell_length_a 19.4013
_cell_length_b 6.1061
_cell_length_c 5.6467
_cell_angle_alpha 88.3011
_cell_angle_beta 89.994
_cell_angle_gamma 89.5656
loop_
_symmetry_equiv_pos_site_id
_symmetry_equiv_pos_as_xyz
1 +x,+y,+z
loop_
_atom_site_label
_atom_site_type_symbol
_atom_site_fract_x
_atom_site_fract_y
_atom_site_fract_z
_atom_site_occupancy
C1 C       0.629951320000       0.221963130000       0.730940480000       1.000000000000
C2 C       0.629358150000       0.563536880000       0.516026650000       1.000000000000
C3 C       0.659545920000       0.424167450000       0.688142700000       1.000000000000
C4 C       0.570856810000       0.492568460000       0.398259770000       1.000000000000
C5 C       0.572235480000       0.149706470000       0.619078760000       1.000000000000
C6 C       0.543213940000       0.288910980000       0.448212600000       1.000000000000
C7 C       0.356496900000       0.496216590000       0.230875450000       1.000000000000
C8 C       0.355907320000       0.167265220000       0.014558090000       1.000000000000
C9 C       0.326876670000       0.296012490000       0.189938390000       1.000000000000
C10 C       0.413356290000       0.246156010000      -0.108187850000       1.000000000000
C11 C       0.413205140000       0.576035970000       0.114108980000       1.000000000000
C12 C       0.441079590000       0.447359770000      -0.059914930000       1.000000000000
C13 C       0.129301960000       0.496073610000       0.723686480000       1.000000000000
C14 C       0.129590480000       0.167700600000       0.506330750000       1.000000000000
C15 C       0.158817720000       0.294477550000       0.681847750000       1.000000000000
C16 C       0.072062120000       0.249860040000       0.384362270000       1.000000000000
C17 C       0.072519870000       0.579107610000       0.607693780000       1.000000000000
C18 C       0.044450030000       0.452338740000       0.433522560000       1.000000000000
C19 C       0.855312340000       0.224126960000       0.222975820000       1.000000000000
C20 C       0.856037190000       0.565240150000       0.007244400000       1.000000000000
C21 C       0.825780920000       0.427763110000       0.179595960000       1.000000000000
C22 C       0.914539570000       0.491036580000      -0.110160770000       1.000000000000
C23 C       0.913027830000       0.148687490000       0.111476130000       1.000000000000
C24 C       0.942117610000       0.286061720000      -0.059628810000       1.000000000000
H1 H       0.698367320000       0.466527000000       0.771285520000       1.000000000000
H2 H       0.550076810000       0.584079780000       0.284173580000       1.000000000000
H3 H       0.640934450000       0.847677800000       0.350692970000       1.000000000000
H4 H       0.694925890000       0.805270240000       0.534458290000       1.000000000000
H5 H       0.553420700000       0.013351010000       0.656198130000       1.000000000000
H6 H       0.504536990000       0.244578790000       0.365770240000       1.000000000000
H7 H       0.288785800000       0.248102990000       0.276403050000       1.000000000000
H8 H       0.433367710000       0.161699100000      -0.224504300000       1.000000000000
H9 H       0.343457480000      -0.107376490000      -0.150848390000       1.000000000000
H10 H       0.290867200000      -0.076685190000       0.037934990000       1.000000000000
H11 H       0.432102470000       0.710538980000       0.150073830000       1.000000000000
H12 H       0.479028650000       0.497198170000      -0.145657890000       1.000000000000
H13 H       0.196967150000       0.244386830000       0.767810900000       1.000000000000
H14 H       0.051920660000       0.166748690000       0.267965200000       1.000000000000
H15 H       0.141802060000      -0.107112620000       0.339945460000       1.000000000000
H16 H       0.194566820000      -0.079627250000       0.528340920000       1.000000000000
H17 H       0.053700090000       0.714471760000       0.644255550000       1.000000000000
H18 H       0.006443680000       0.504348950000       0.348285780000       1.000000000000
H19 H       0.786956650000       0.472279690000       0.262509960000       1.000000000000
H20 H       0.935364730000       0.581254200000      -0.224398550000       1.000000000000
H21 H       0.844568140000       0.849641880000      -0.158807490000       1.000000000000
H22 H       0.790532850000       0.810371040000       0.024882380000       1.000000000000
H23 H       0.931798540000       0.011442050000       0.148983920000       1.000000000000
H24 H       0.980796780000       0.239581230000      -0.141838020000       1.000000000000
N1 N       0.658781740000       0.764154680000       0.460035560000       1.000000000000
N2 N       0.662087830000       0.078528830000       0.913773250000       1.000000000000
N3 N       0.326352160000      -0.030577360000      -0.039574780000       1.000000000000
N4 N       0.325596400000       0.628366590000       0.417162410000       1.000000000000
N5 N       0.159030460000      -0.031495670000       0.451303130000       1.000000000000
N6 N       0.160409690000       0.626127910000       0.910103800000       1.000000000000
N7 N       0.826678690000       0.767253360000      -0.049323430000       1.000000000000
N8 N       0.823104340000       0.082706650000       0.406047280000       1.000000000000
O1 O       0.633929630000      -0.097084260000       0.962703630000       1.000000000000
O2 O       0.714338120000       0.136757000000       1.010823950000       1.000000000000
O3 O       0.353868150000       0.801597730000       0.464247070000       1.000000000000
O4 O       0.274214590000       0.563538010000       0.518685980000       1.000000000000
O5 O       0.132238550000       0.800668040000       0.957994500000       1.000000000000
O6 O       0.211857260000       0.558397320000       1.010949090000       1.000000000000
O7 O       0.851205550000      -0.094250640000       0.455489920000       1.000000000000
O8 O       0.770853140000       0.143806970000       0.502788090000       1.000000000000
#END