data_cif

_audit_creation_method             'generated by GULP'

_symmetry_space_group_name_H-M     'P C A 21        '
_symmetry_Int_Tables_number        29
_symmetry_cell_setting             Orthorhombic

_cell_length_a                      20.600755
_cell_length_b                       7.698255
_cell_length_c                       3.885226
_cell_angle_alpha                   90.000000
_cell_angle_beta                    90.000000
_cell_angle_gamma                   90.000000

loop_
_atom_site_label
_atom_site_fract_x
_atom_site_fract_y
_atom_site_fract_z
_atom_site_occupancy
  C2          0.62274      0.14893      0.73140  1.0000
  C2          0.65438      0.44905      0.61852  1.0000
  C2          0.66749      0.28667      0.76529  1.0000
  H3          0.71207      0.26859      0.90963  1.0000
  C2          0.59676      0.47554      0.43575  1.0000
  H3          0.58702      0.60073      0.31841  1.0000
  N4          0.69753      0.58387      0.65920  1.0000
  H5          0.67815      0.70476      0.64409  1.0000
  H5          0.73048      0.56953      0.85356  1.0000
  N1          0.63636      0.97629      0.89054  1.0000
  O6          0.59569      0.86134      0.85488  1.0000
  C2          0.56456      0.17722      0.54804  1.0000
  H3          0.52944      0.07331      0.51609  1.0000
  O6          0.68848      0.95433      0.03702  1.0000
  C2          0.55180      0.33997      0.40038  1.0000
  H3          0.50742      0.36055      0.25537  1.0000
