data_C6H6N2O2
_audit_creation_method 'chmpy python library version 1.0a1'
_cell_length_a 16.997515
_cell_length_b 5.814776
_cell_length_c 5.587104
_cell_angle_alpha 90.0
_cell_angle_beta 90.0
_cell_angle_gamma 90.0
loop_
_symmetry_equiv_pos_site_id
_symmetry_equiv_pos_as_xyz
                   1 +x,+y,+z
                   2 -x,-y,1/2+z
                   3 1/2+x,-y,+z
                   4 1/2-x,+y,1/2+z
loop_
_atom_site_label
_atom_site_type_symbol
_atom_site_fract_x
_atom_site_fract_y
_atom_site_fract_z
_atom_site_occupancy
C C       0.623088000000       0.278963000000       0.731400000000       1.000000000000
C C       0.653218000000       0.627895000000       0.503234000000       1.000000000000
C C       0.666894000000       0.480743000000       0.700739000000       1.000000000000
H H       0.712775000000       0.523645000000       0.829840000000       1.000000000000
C C       0.593540000000       0.567878000000       0.337493000000       1.000000000000
H H       0.584272000000       0.679322000000       0.182969000000       1.000000000000
N N       0.699028000000       0.824769000000       0.471224000000       1.000000000000
H H       0.681390000000       0.960784000000       0.364300000000       1.000000000000
H H       0.734967000000       0.879352000000       0.610411000000       1.000000000000
N N       0.637973000000       0.126832000000       0.938409000000       1.000000000000
O O       0.596949000000       0.947787000000       0.961719000000       1.000000000000
C C       0.564472000000       0.222424000000       0.563090000000       1.000000000000
H H       0.530740000000       0.064102000000       0.588104000000       1.000000000000
O O       0.690673000000       0.180483000000       0.087121000000       1.000000000000
C C       0.549421000000       0.367257000000       0.367963000000       1.000000000000
H H       0.503280000000       0.322616000000       0.239496000000       1.000000000000
#END