data_C2N
_audit_creation_method 'chmpy python library version 1.0a1'
_cell_length_a 8.303817
_cell_length_b 8.303817
_cell_length_c 8.303817
_cell_angle_alpha 109.471221
_cell_angle_beta 109.471221
_cell_angle_gamma 109.471221
loop_
_symmetry_equiv_pos_site_id
_symmetry_equiv_pos_as_xyz
                   1 -x,-y,-z
                   2 -x,-y,+z
                   3 -x,+y,-z
                   4 -x,+y,+z
                   5 -y,-z,-x
                   6 -y,-z,+x
                   7 -y,+z,-x
                   8 -y,+z,+x
                   9 -z,-x,-y
                  10 -z,-x,+y
                  11 -z,+x,-y
                  12 -z,+x,+y
                  13 +z,-x,-y
                  14 +z,-x,+y
                  15 +z,+x,-y
                  16 +z,+x,+y
                  17 +y,-z,-x
                  18 +y,-z,+x
                  19 +y,+z,-x
                  20 +y,+z,+x
                  21 +x,-y,-z
                  22 +x,-y,+z
                  23 +x,+y,-z
                  24 +x,+y,+z
                  25 1/2-x,1/2-y,1/2-z
                  26 1/2-x,1/2-y,1/2+z
                  27 1/2-x,1/2+y,1/2-z
                  28 1/2-x,1/2+y,1/2+z
                  29 1/2-y,1/2-z,1/2-x
                  30 1/2-y,1/2-z,1/2+x
                  31 1/2-y,1/2+z,1/2-x
                  32 1/2-y,1/2+z,1/2+x
                  33 1/2-z,1/2-x,1/2-y
                  34 1/2-z,1/2-x,1/2+y
                  35 1/2-z,1/2+x,1/2-y
                  36 1/2-z,1/2+x,1/2+y
                  37 1/2+z,1/2-x,1/2-y
                  38 1/2+z,1/2-x,1/2+y
                  39 1/2+z,1/2+x,1/2-y
                  40 1/2+z,1/2+x,1/2+y
                  41 1/2+y,1/2-z,1/2-x
                  42 1/2+y,1/2-z,1/2+x
                  43 1/2+y,1/2+z,1/2-x
                  44 1/2+y,1/2+z,1/2+x
                  45 1/2+x,1/2-y,1/2-z
                  46 1/2+x,1/2-y,1/2+z
                  47 1/2+x,1/2+y,1/2-z
                  48 1/2+x,1/2+y,1/2+z
loop_
_atom_site_label
_atom_site_type_symbol
_atom_site_fract_x
_atom_site_fract_y
_atom_site_fract_z
_atom_site_occupancy
C C       0.072095000000       0.500000000000       0.500000000000       1.000000000000
C C       0.150563000000       0.500000000000       0.625842000000       1.000000000000
N N       0.216565000000       0.500000000000       0.729687000000       1.000000000000
#END