# CIF file generated from CASTEP cell file
# https://gist.github.com/blake-armstrong/93facdde07a6e0a1ddb51857dd48e3f1
# Structure converted from CASTEP

data_structure

_cell_length_a    9.731602836811046
_cell_length_b    9.731493254268518
_cell_length_c    9.731569790488379
_cell_angle_alpha 89.999875992316248
_cell_angle_beta  90.000085733974146
_cell_angle_gamma 90.000030935137588

_symmetry_space_group_name_H-M 'P 1'
_symmetry_Int_Tables_number 1

loop_
_atom_site_label
_atom_site_type_symbol
_atom_site_fract_x
_atom_site_fract_y
_atom_site_fract_z
C1       C     0.070762766921032    0.499999987300575    0.499998998431512
C2       C     0.500000648122598    0.070765039507771    0.500000159441196
C3       C     0.499999663055436    0.499999945266611    0.070764201007931
C4       C     0.500000109543947    0.500000170802361    0.929236042173015
C5       C     0.929234620900973    0.500000021702982    0.499999707036527
C6       C     0.500000719768219    0.929235963322943    0.500000123263155
C7       C     0.570763016735827    0.000000005010219   -0.000000431613298
C8       C    -0.000000302014424    0.570765475466056    0.000000153067306
C9       C    -0.000000276286946   -0.000000455108570    0.570764691891485
C10      C     0.000000156784289    0.000001198824160    0.429236563306270
C11      C     0.429235119522665    0.000000011711890   -0.000000180706641
C12      C    -0.000000782047738    0.429235937073733    0.000000176883368
C13      C     0.148433725254101    0.500000022810056    0.623885356029830
C14      C     0.623885830491474    0.148433136259301    0.500000145952030
C15      C     0.499999771205466    0.623885076139856    0.148433968517402
C16      C     0.148433697081362    0.500000014690824    0.376115952218350
C17      C     0.376117030639434    0.148433669271279    0.500000129344289
C18      C     0.499999724763615    0.376112508187752    0.148432764288177
C19      C     0.499999925621360    0.376115596891572    0.851565634325766
C20      C     0.851566517404336    0.500000038223636    0.376116191393968
C21      C     0.376116293269095    0.851566333038614    0.500000143341078
C22      C     0.851565935187029    0.500000008470158    0.623885906424386
C23      C     0.623884811846970    0.851565396965044    0.500000092570911
C24      C     0.499999988553980    0.623887691205464    0.851566945517419
C25      C     0.648433396925235   -0.000000059234153    0.123882860877267
C26      C     0.123885492627546    0.648433900895637    0.000000109033892
C27      C    -0.000000084268689    0.123885003796822    0.648433227847679
C28      C     0.648433076961536    0.000000090588099    0.876113739333917
C29      C     0.876114964937364    0.648433139209670    0.000000154050295
C30      C    -0.000000220013296    0.876113664126212    0.648433296772321
C31      C    -0.000000036829518    0.876114989511535    0.351566271901629
C32      C     0.351565881226377    0.000000094476425    0.876114782511817
C33      C     0.876115117371336    0.351565777669554    0.000000251777754
C34      C     0.351566601461772   -0.000000053520987    0.123883739469098
C35      C     0.123885552758580    0.351566274648812    0.000000149182298
C36      C     0.000000091802588    0.123886443600212    0.351566418814688
N1       N     0.215613523274499    0.500000052792359    0.722799473869691
N2       N     0.722799042114052    0.215613647262398    0.500000158964171
N3       N     0.499999871843063    0.722798727110364    0.215614531963953
N4       N     0.215613024122226    0.499999995144512    0.277201807745908
N5       N     0.277202810315917    0.215612435584667    0.500000186616450
N6       N     0.500000045368533    0.277200700033570    0.215616996242203
N7       N     0.499999831407904    0.277201432876938    0.784385757217395
N8       N     0.784387510517508    0.499999972505998    0.277201721208730
N9       N     0.277201950806223    0.784386805624047    0.500000060955130
N10      N     0.784386004425156    0.500000011276725    0.722799386451532
N11      N     0.722798320920592    0.784385600031721    0.500000026061657
N12      N     0.499999698143003    0.722799536693330    0.784382328102255
N13      N     0.715612575401589   -0.000000125476754    0.222797054652853
N14      N     0.222799567569774    0.715613320862894    0.000000140022857
N15      N     0.000000042344253    0.222798884091976    0.715613950027540
N16      N     0.715614354611568    0.000000037390553    0.777201083499442
N17      N     0.777200511617579    0.715612588463425    0.000000033933797
N18      N     0.000000011721618    0.777200811031476    0.715616537829510
N19      N    -0.000000197727829    0.777200031497263    0.284386753538700
N20      N     0.284385983825722    0.000000035031259    0.777201380530449
N21      N     0.777200185967556    0.284387075427055    0.000000064526943
N22      N     0.284386897360829   -0.000000101549737    0.222797450741623
N23      N     0.222800077569197    0.284386891252592    0.000000170966875
N24      N    -0.000000190805446    0.222799576239249    0.284384508652260
