data_cif

_audit_creation_method             'generated by GULP'

_symmetry_space_group_name_H-M     'I M -3          '
_symmetry_Int_Tables_number        204
_symmetry_cell_setting             Cubic       

_cell_length_a                       9.878272
_cell_length_b                       9.878272
_cell_length_c                       9.878272
_cell_angle_alpha                   90.000000
_cell_angle_beta                    90.000000
_cell_angle_gamma                   90.000000

loop_
_atom_site_label
_atom_site_fract_x
_atom_site_fract_y
_atom_site_fract_z
_atom_site_occupancy
  C1          0.07356      0.50000      0.50000  1.0000
  C3          0.17435      0.50000      0.60404  1.0000
  N2          0.19278      0.50000      0.71972  1.0000
