data_image0
_chemical_formula_structural       C36N24
_chemical_formula_sum              "C36 N24"
_cell_length_a       9.816782598265167
_cell_length_b       9.820954073810125
_cell_length_c       9.82326264271031
_cell_angle_alpha    89.88426437211703
_cell_angle_beta     89.91080138353811
_cell_angle_gamma    89.95591619129341

_space_group_name_H-M_alt    "P 1"
_space_group_IT_number       1

loop_
  _space_group_symop_operation_xyz
  'x, y, z'

loop_
  _atom_site_type_symbol
  _atom_site_label
  _atom_site_symmetry_multiplicity
  _atom_site_fract_x
  _atom_site_fract_y
  _atom_site_fract_z
  _atom_site_occupancy
  C   C1        1.0  0.0699726803738132  0.5001840362838055  0.4998776401709865  1.0000
  C   C2        1.0  0.9298279565515526  0.5001286389188812  0.4998942619640506  1.0000
  C   C3        1.0  0.5699730839368752  0.00018374430299402205  0.9998771964421476  1.0000
  C   C4        1.0  0.4298274070143126  0.00012882748336182185  0.999893695776737  1.0000
  C   C5        1.0  0.49967391695751445  0.06999574867600974  0.5004639554758759  1.0000
  C   C6        1.0  0.4998015726676894  0.9298927555651312  0.500060060029476  1.0000
  C   C7        1.0  0.9996738237666695  0.5699960354783953  0.0004643949517828825  1.0000
  C   C8        1.0  0.9998014490191727  0.42989283201548745  6.0271500037623374e-05  1.0000
  C   C9        1.0  0.5004635724528488  0.4996780025657132  0.07015356395841325  1.0000
  C   C10       1.0  0.5001240011632543  0.4997802973740023  0.9300871135448681  1.0000
  C   C11       1.0  0.00046370042988051584  0.9996781568831983  0.5701533513229309  1.0000
  C   C12       1.0  0.00012415476266334778  0.9997803599656921  0.43008722187076953  1.0000
  C   C13       1.0  0.1467142626997116  0.5005318437600698  0.6223639170613808  1.0000
  C   C14       1.0  0.852772163824239  0.5002152582364446  0.6224851015253153  1.0000
  C   C15       1.0  0.8531603180710778  0.4999205901187246  0.37725255734202806  1.0000
  C   C16       1.0  0.14693395470747056  0.5001242509141997  0.3771936397763954  1.0000
  C   C17       1.0  0.6467145636156096  0.000531103628371965  0.12236593882488528  1.0000
  C   C18       1.0  0.3527714659109908  0.0002150274892753067  0.12248662521959627  1.0000
  C   C19       1.0  0.35316035742870355  0.9999213336998816  0.877249999292131  1.0000
  C   C20       1.0  0.6469343451221244  0.0001244939871481039  0.877190402372857  1.0000
  C   C21       1.0  0.6224975932857844  0.14652420940263064  0.5008741062585028  1.0000
  C   C22       1.0  0.3773516724995577  0.8528940952590854  0.49973028789483287  1.0000
  C   C23       1.0  0.3771737180388872  0.14719878084228727  0.5004812982642567  1.0000
  C   C24       1.0  0.6227281750451905  0.8534658519695292  0.4999846921383432  1.0000
  C   C25       1.0  0.12249558027993551  0.6465246320898479  0.0008733408274983495  1.0000
  C   C26       1.0  0.877352835534906  0.35289394387099904  0.9997313531795453  1.0000
  C   C27       1.0  0.8771752937087254  0.6471990558567405  0.000482591365037806  1.0000
  C   C28       1.0  0.12272688869122475  0.3534658415397959  0.9999839454755933  1.0000
  C   C29       1.0  0.5005139576858617  0.622295908869601  0.1467119739005314  1.0000
  C   C30       1.0  0.5004473711230986  0.37707489847012415  0.14723401145002726  1.0000
  C   C31       1.0  0.49980269282388295  0.6225098779110686  0.8531919838020883  1.0000
  C   C32       1.0  0.49983914742247665  0.3773266301602797  0.8532368530277508  1.0000
  C   C33       1.0  0.0005141333233496078  0.12229496723304316  0.6467118993054495  1.0000
  C   C34       1.0  0.0004472469431511478  0.8770754733624577  0.6472339101571418  1.0000
  C   C35       1.0  0.9998031995346605  0.12250922028962356  0.3531916845309193  1.0000
  C   C36       1.0  0.9998391985004481  0.8773274970114519  0.3532372109819395  1.0000
  N   N1        1.0  0.2137844717041604  0.5004923831980569  0.7199266718992685  1.0000
  N   N2        1.0  0.7857936538883089  0.5004087445463002  0.7203521097161172  1.0000
  N   N3        1.0  0.7867705069546482  0.4994186669094151  0.27922032681714115  1.0000
  N   N4        1.0  0.21348106342505563  0.4999592598087529  0.2790643873943612  1.0000
  N   N5        1.0  0.7137854307491227  0.000492457835934671  0.2199285772272079  1.0000
  N   N6        1.0  0.2857927208871836  0.0004086834210197172  0.22035297911451895  1.0000
  N   N7        1.0  0.2867698071106461  0.9994182114183819  0.7792180267650911  1.0000
  N   N8        1.0  0.7134826593935617  0.9999590003509682  0.7790621582395499  1.0000
  N   N9        1.0  0.7206100662460939  0.21294609777656331  0.5008528438528893  1.0000
  N   N10       1.0  0.2795222621656646  0.7860497904857509  0.4993239585087275  1.0000
  N   N11       1.0  0.27937115249087546  0.21422356710140888  0.5001230084179227  1.0000
  N   N12       1.0  0.7210158012792393  0.7871328198921105  0.5000584744031585  1.0000
  N   N13       1.0  0.220609452581334  0.712945398423765  0.0008536162995124132  1.0000
  N   N14       1.0  0.7795227836834655  0.2860498729303539  0.9993234727152494  1.0000
  N   N15       1.0  0.7793716361008148  0.7142227285668565  0.00012256551618208456  1.0000
  N   N16       1.0  0.22101555035203127  0.28713346717476285  5.9155330368189e-05  1.0000
  N   N17       1.0  0.5003866430542121  0.7202997353103979  0.21310412138465262  1.0000
  N   N18       1.0  0.5003307346440548  0.2792585661736452  0.2142999996673017  1.0000
  N   N19       1.0  0.49963198893260874  0.7203322457528853  0.786140337901791  1.0000
  N   N20       1.0  0.49950223406084043  0.2797368740479519  0.7862577045346173  1.0000
  N   N21       1.0  0.0003868614895613032  0.2202996434140289  0.713103888501658  1.0000
  N   N22       1.0  0.0003309582558750359  0.7792593773493036  0.714299976958791  1.0000
  N   N23       1.0  0.9996319715481774  0.22033145321637934  0.2861403420678324  1.0000
  N   N24       1.0  0.9995021095646295  0.7797373384271767  0.28625780580336063  1.0000
