data_TCYETY01.b3lyp.6-311G**.dma4.-58.2547.1.3287
_audit_creation_method 'generated by cspy2.0'
_cell_length_a 6.8198
_cell_length_b 11.4352
_cell_length_c 13.0465
_cell_angle_alpha 89.7226
_cell_angle_beta 76.6522
_cell_angle_gamma 103.5521
loop_
_symmetry_equiv_pos_site_id
_symmetry_equiv_pos_as_xyz
1 +x,+y,+z
loop_
_atom_site_label
_atom_site_type_symbol
_atom_site_fract_x
_atom_site_fract_y
_atom_site_fract_z
_atom_site_occupancy
C1 C       0.103367880000       0.520180580000       0.482487670000       1.000000000000
C2 C      -0.103367880000       0.479819420000       0.517512330000       1.000000000000
C3 C       0.242841650000       0.524563360000       0.550618110000       1.000000000000
C4 C      -0.242841650000       0.475436640000       0.449381890000       1.000000000000
C5 C      -0.199692700000       0.438167100000       0.625591210000       1.000000000000
C6 C       0.199692700000       0.561832900000       0.374408790000       1.000000000000
C7 C       0.534698150000       0.050764010000       0.516629260000       1.000000000000
C8 C       0.547800370000      -0.064658540000       0.514981100000       1.000000000000
C9 C       0.552154380000       0.121542720000       0.422156930000       1.000000000000
C10 C       0.530344140000      -0.135437250000       0.609453420000       1.000000000000
C11 C       0.502297780000       0.111633880000       0.612981430000       1.000000000000
C12 C       0.580200730000      -0.125528440000       0.418628920000       1.000000000000
C13 C       0.535727410000       0.501101820000       0.056547070000       1.000000000000
C14 C       0.490309980000       0.473182570000      -0.036578680000       1.000000000000
C15 C       0.598350410000       0.623670340000       0.083645260000       1.000000000000
C16 C       0.427686990000       0.350614030000      -0.063676860000       1.000000000000
C17 C       0.524906640000       0.410377410000       0.135666230000       1.000000000000
C18 C       0.501130750000       0.563906970000      -0.115697850000       1.000000000000
C19 C       0.535431420000       0.010470520000       0.036104460000       1.000000000000
C20 C       0.732398620000       0.066928560000      -0.010707990000       1.000000000000
C21 C       0.378188330000      -0.023886750000      -0.022229680000       1.000000000000
C22 C       0.468017700000      -0.019567100000       0.147831910000       1.000000000000
C23 C       0.799812320000       0.096966170000      -0.122435430000       1.000000000000
C24 C       0.889641700000       0.101285830000       0.047626150000       1.000000000000
C25 C       0.018016310000       0.495571860000       0.025614720000       1.000000000000
C26 C       0.061976850000       0.616372200000       0.013403160000       1.000000000000
C27 C       0.019789600000       0.433881860000       0.121520700000       1.000000000000
C28 C       0.113890640000       0.692464630000       0.095380870000       1.000000000000
C29 C      -0.033897480000       0.419479450000      -0.056363000000       1.000000000000
C30 C       0.060203570000       0.678062220000      -0.082502830000       1.000000000000
C31 C       0.037852600000       0.989254620000       0.458760730000       1.000000000000
C32 C       0.036817160000       1.035140330000       0.553440610000       1.000000000000
C33 C       0.030923930000       0.864258430000       0.442562600000       1.000000000000
C34 C       0.028707480000       0.962480440000       0.645232420000       1.000000000000
C35 C       0.045962290000       1.061914520000       0.366968920000       1.000000000000
C36 C       0.043745840000       1.160136540000       0.569638740000       1.000000000000
N1 N       0.357220180000       0.529205130000       0.602282560000       1.000000000000
N2 N      -0.357220180000       0.470794870000       0.397717440000       1.000000000000
N3 N      -0.280664480000       0.404670510000       0.710351430000       1.000000000000
N4 N       0.280664480000       0.595329490000       0.289648570000       1.000000000000
N5 N       0.565264040000       0.179911490000       0.349065620000       1.000000000000
N6 N       0.517234480000      -0.193806030000       0.682544750000       1.000000000000
N7 N       0.476807490000       0.162331060000       0.687630140000       1.000000000000
N8 N       0.605691030000      -0.176225590000       0.343980210000       1.000000000000
N9 N       0.648239300000       0.719428920000       0.107505970000       1.000000000000
N10 N       0.377798100000       0.254855450000      -0.087537570000       1.000000000000
N11 N       0.517933950000       0.341000490000       0.199802610000       1.000000000000
N12 N       0.508103450000       0.633283900000      -0.179834220000       1.000000000000
N13 N       0.250354640000      -0.052233310000      -0.065944980000       1.000000000000
N14 N       0.409731670000      -0.044569300000       0.235781580000       1.000000000000
N15 N       0.858098360000       0.121968380000      -0.210385100000       1.000000000000
N16 N       1.017475390000       0.129632380000       0.091341460000       1.000000000000
N17 N       0.019802610000       0.382383380000       0.196150730000       1.000000000000
N18 N       0.155443180000       0.755113720000       0.158471860000       1.000000000000
N19 N      -0.075450030000       0.356830340000      -0.119453980000       1.000000000000
N20 N       0.060190550000       0.729560690000      -0.157132850000       1.000000000000
N21 N       0.025591650000       0.766064490000       0.427092840000       1.000000000000
N22 N       0.022396780000       0.907645180000       0.719228260000       1.000000000000
N23 N       0.052272990000       1.116749770000       0.292973070000       1.000000000000
N24 N       0.049078120000       1.258330460000       0.585108510000       1.000000000000
#END