data_image0
_chemical_formula_structural       C36N24
_chemical_formula_sum              "C36 N24"
_cell_length_a       9.736
_cell_length_b       9.736
_cell_length_c       9.736
_cell_angle_alpha    90.0
_cell_angle_beta     90.0
_cell_angle_gamma    90.0

_space_group_name_H-M_alt    "P 1"
_space_group_IT_number       1

loop_
  _space_group_symop_operation_xyz
  'x, y, z'

loop_
  _atom_site_type_symbol
  _atom_site_label
  _atom_site_symmetry_multiplicity
  _atom_site_fract_x
  _atom_site_fract_y
  _atom_site_fract_z
  _atom_site_occupancy
  C   C1        1.0  0.07074676979875151  0.5000000450296833  0.5000000069049523  1.0000
  C   C2        1.0  0.9292533411264985  0.499999954463526  0.5000000061284874  1.0000
  C   C3        1.0  0.5707467741085956  0.9999999319801999  1.591526705913935e-07  1.0000
  C   C4        1.0  0.4292532788260062  4.9470324041470286e-08  0.9999998727179791  1.0000
  C   C5        1.0  0.5000002558245418  0.0707467164779953  0.5000001297407928  1.0000
  C   C6        1.0  0.49999975500931765  0.9292534330954952  0.49999999473517065  1.0000
  C   C7        1.0  5.3944264375442064e-09  0.570746706904601  0.9999997336842478  1.0000
  C   C8        1.0  1.234794459687809e-07  0.4292531782530988  2.2912867535928115e-07  1.0000
  C   C9        1.0  0.4999999558299441  0.5000000306986424  0.07074707279805942  1.0000
  C   C10       1.0  0.49999999744897816  0.4999999135187525  0.9292530717471011  1.0000
  C   C11       1.0  0.9999996065642988  0.9999999793163038  0.5707469739366756  1.0000
  C   C12       1.0  1.2681542252677168e-07  2.57438913791089e-07  0.4292530949440747  1.0000
  C   C13       1.0  0.14893931303856472  0.4999970783094228  0.6236630085165715  1.0000
  C   C14       1.0  0.8510607138114208  0.5000027439726992  0.6236629037431275  1.0000
  C   C15       1.0  0.8510607082603012  0.4999971129752907  0.37633708877369565  1.0000
  C   C16       1.0  0.14893932494728432  0.5000028515799768  0.3763369933781546  1.0000
  C   C17       1.0  0.6489393933503752  0.9999969591694469  0.12366319151316904  1.0000
  C   C18       1.0  0.35106056969597277  2.9162666781571703e-06  0.12366282113417962  1.0000
  C   C19       1.0  0.35106072076020756  0.9999973383965441  0.8763367537331784  1.0000
  C   C20       1.0  0.6489394001364261  2.7717954508814776e-06  0.8763371200631018  1.0000
  C   C21       1.0  0.6236634757945684  0.14893933249946031  0.5000102475216006  1.0000
  C   C22       1.0  0.3763366801139916  0.8510607851263072  0.5000100370166417  1.0000
  C   C23       1.0  0.3763370765551397  0.14893923724665842  0.49998983788509915  1.0000
  C   C24       1.0  0.6236628024503899  0.8510607718777496  0.4999897510540444  1.0000
  C   C25       1.0  0.12366310890551145  0.6489394302737401  1.0132046133527337e-05  1.0000
  C   C26       1.0  0.8763368892229295  0.35106058560006775  1.0462704721411053e-05  1.0000
  C   C27       1.0  0.8763368737979371  0.6489392581935399  0.9999897158199058  1.0000
  C   C28       1.0  0.12366309924281334  0.3510605074751145  0.9999898919421629  1.0000
  C   C29       1.0  0.5001095601798726  0.6236635396275442  0.1489388357036412  1.0000
  C   C30       1.0  0.499890337989463  0.3763366213001916  0.14893893989683976  1.0000
  C   C31       1.0  0.4998902409595686  0.6236633720940731  0.8510611952856119  1.0000
  C   C32       1.0  0.5001098410644573  0.376336495906593  0.8510612018053056  1.0000
  C   C33       1.0  0.00010928865973911748  0.12366340507795144  0.648939286241975  1.0000
  C   C34       1.0  0.999890188412522  0.8763363089519922  0.6489389307081238  1.0000
  C   C35       1.0  0.9998906705748419  0.123663654022379  0.3510608218459815  1.0000
  C   C36       1.0  0.00010991143221928384  0.8763367553456054  0.35106106406370036  1.0000
  N   N1        1.0  0.21757205113940747  0.49966889419174254  0.721759459536542  1.0000
  N   N2        1.0  0.7824278167400898  0.5003310141707927  0.721759348060584  1.0000
  N   N3        1.0  0.7824277454205274  0.49966883648190524  0.27824074088718753  1.0000
  N   N4        1.0  0.21757217742060936  0.500331134119211  0.2782406349927325  1.0000
  N   N5        1.0  0.7175725997882475  0.999668823886604  0.2217595302506023  1.0000
  N   N6        1.0  0.2824277580602011  0.0003308855031685967  0.2217593515418813  1.0000
  N   N7        1.0  0.28242742758902833  0.9996687084352266  0.7782405943980539  1.0000
  N   N8        1.0  0.7175721990168523  0.0003311859646477209  0.7782406316059367  1.0000
  N   N9        1.0  0.7217595404309741  0.21757253582625305  0.4996929076979871  1.0000
  N   N10       1.0  0.27824054820466065  0.7824273987812518  0.49969271315086056  1.0000
  N   N11       1.0  0.2782407167818063  0.2175722299356319  0.5003072104663879  1.0000
  N   N12       1.0  0.7217592772988181  0.7824278569605247  0.5003069904174827  1.0000
  N   N13       1.0  0.22175921663025047  0.7175727030763828  0.999692961955226  1.0000
  N   N14       1.0  0.7782407953696778  0.2824274896024309  0.9996927140865612  1.0000
  N   N15       1.0  0.7782407466767272  0.7175726332379664  0.0003073639339941364  1.0000
  N   N16       1.0  0.2217594491829972  0.2824272637168491  0.0003070734588049045  1.0000
  N   N17       1.0  0.49980725114189856  0.7217620060666734  0.2175688582151821  1.0000
  N   N18       1.0  0.5001925958494902  0.2782380737874822  0.21756885125689604  1.0000
  N   N19       1.0  0.5001926664400017  0.721761715509436  0.7824310093404752  1.0000
  N   N20       1.0  0.49980737389785385  0.2782382969595935  0.7824306753295794  1.0000
  N   N21       1.0  0.9998076128730515  0.22176204318885895  0.7175691917425469  1.0000
  N   N22       1.0  0.00019280272473742508  0.7782380420639735  0.7175692916780765  1.0000
  N   N23       1.0  0.00019238451654169676  0.22176203007198167  0.28243039125222325  1.0000
  N   N24       1.0  0.9998070714417756  0.7782381591413028  0.28243091634594397  1.0000
