# CIF file generated from CASTEP cell file
# https://gist.github.com/blake-armstrong/93facdde07a6e0a1ddb51857dd48e3f1
# Structure converted from CASTEP

data_structure

_cell_length_a    6.009697593103854
_cell_length_b    3.722039273578080
_cell_length_c    11.681220629049287
_cell_angle_alpha 90.000000000000000
_cell_angle_beta  104.771280313010280
_cell_angle_gamma 90.000000000000000

_symmetry_space_group_name_H-M 'P 1'
_symmetry_Int_Tables_number 1

loop_
_atom_site_label
_atom_site_type_symbol
_atom_site_fract_x
_atom_site_fract_y
_atom_site_fract_z
H1       H     1.015040112043730    0.023395059572902    0.231998061217295
H2       H     0.414644159665645    0.687977113590628    0.105801791131351
H3       H     0.640559983934736    0.451434568358862    0.139413858311948
H4       H     0.484959910308352    0.523395059572902    0.268002005239907
H5       H     1.085355862686437    0.187977113590626    0.394198275325849
H6       H     0.859440038417345   -0.048565431641138    0.360586208145254
H7       H     0.984959910308352   -0.023395059572902   -0.231997994760094
H8       H     0.585355862686436    0.312022886409374    0.894198275325849
H9       H     0.359440038417346    0.548565431641139    0.860586208145254
H10      H     0.515040112043729    0.476604940427098    0.731998061217294
H11      H    -0.085355840334355    0.812022886409372    0.605801791131351
H12      H     0.140559983934735    1.048565431641139    0.639413858311948
C1       C     0.953323433264136    0.057823059318285    0.053376468151731
C2       C     0.546676589087945    0.557823059318285    0.446623598305471
C3       C     1.046676589087946   -0.057823059318285   -0.053376401694530
C4       C     0.453323433264136    0.442176940681715    0.553376468151731
O1       O     1.078179962362516   -0.054633571505932    0.153512057813155
O2       O     0.774977089502883    0.240835666482675    0.036499469402976
O3       O     0.547689172750120    0.623515801486903    0.171850859489863
O4       O     0.421820059989565    0.445366428494068    0.346488008644044
O5       O     0.725022932849198    0.740835666482675    0.463500597054226
O6       O     0.952310849601960    0.123515801486903    0.328149206967337
O7       O     0.921820059989566    0.054633571505932   -0.153511991355955
O8       O     1.225022932849197   -0.240835666482675   -0.036499402945775
O9       O     0.452310849601960    0.376484198513097    0.828149206967337
O10      O     0.578179962362515    0.554633571505932    0.653512057813155
O11      O     0.274977089502883    0.259164333517325    0.536499469402975
O12      O     0.047689172750121    0.876484198513097    0.671850859489863
