data_cif

_audit_creation_method             'generated by GULP'

_symmetry_space_group_name_H-M     'P 1 21/N 1      '
_symmetry_Int_Tables_number        14
_symmetry_cell_setting             Monoclinic  

_cell_length_a                       5.014607
_cell_length_b                       5.548529
_cell_length_c                      11.982858
_cell_angle_alpha                   90.000000
_cell_angle_beta                   130.857147
_cell_angle_gamma                   90.000000

loop_
_atom_site_label
_atom_site_fract_x
_atom_site_fract_y
_atom_site_fract_z
_atom_site_occupancy
  C2          0.94705      0.01664      0.05000  1.0000
  H4          0.97460      0.89539      0.20030  1.0000
  O3          0.04243      0.83469      0.14407  1.0000
  O1          0.78896      0.19210      0.04332  1.0000
  H4          0.45930      0.57919      0.10724  1.0000
  H4          0.70057      0.36097      0.15058  1.0000
  O3          0.59187      0.45191      0.18252  1.0000
