data_image0
_chemical_formula_structural       C4H4O8H8O4
_chemical_formula_sum              "C4 H12 O12"
_cell_length_a       5.5566168425977605
_cell_length_b       3.9965419574903707
_cell_length_c       11.455537629913547
_cell_angle_alpha    89.94488674864962
_cell_angle_beta     103.58966105331619
_cell_angle_gamma    90.00209140401508

_space_group_name_H-M_alt    "P 1"
_space_group_IT_number       1

loop_
  _space_group_symop_operation_xyz
  'x, y, z'

loop_
  _atom_site_type_symbol
  _atom_site_label
  _atom_site_symmetry_multiplicity
  _atom_site_fract_x
  _atom_site_fract_y
  _atom_site_fract_z
  _atom_site_occupancy
  C   C1        1.0  0.9560682132483979  0.05941813445443244  0.05553847919527283  1.0000
  C   C2        1.0  0.5442707738762652  0.5591600487908276  0.4443799354148628  1.0000
  C   C3        1.0  0.0444894003727439  0.9406193595894713  0.9442834569939889  1.0000
  C   C4        1.0  0.45526035096468626  0.44114645596512536  0.5556351580847841  1.0000
  H   H1        1.0  0.009699004858696179  0.046934063211241696  0.2565646692089334  1.0000
  H   H2        1.0  0.490985901785936  0.5453284150329665  0.24346948657157894  1.0000
  H   H3        1.0  0.9908434385058775  0.9538763396067764  0.7432441460169821  1.0000
  H   H4        1.0  0.5082877001646429  0.45354880940518827  0.7569251582451425  1.0000
  O   O1        1.0  0.083900445557445  0.965521705221674  0.15562982367173375  1.0000
  O   O2        1.0  0.4170940457789797  0.46396558274489264  0.3443739088459587  1.0000
  O   O3        1.0  0.917164809283038  0.03542696330106296  0.8442322383091954  1.0000
  O   O4        1.0  0.582314752860312  0.5358009058768467  0.655685728747426  1.0000
  O   O5        1.0  0.764140505247519  0.24056067805465084  0.03646105052220991  1.0000
  O   O6        1.0  0.7358519748779383  0.7408812287015755  0.46329225737975915  1.0000
  O   O7        1.0  0.23605929351235164  0.7586660764644076  0.9634079170006425  1.0000
  O   O8        1.0  0.263330279171739  0.26000029343960657  0.5364802350696547  1.0000
  H   H5        1.0  0.40135905446973874  0.692393596925751  0.09410461220310007  1.0000
  H   H6        1.0  0.09894060885793679  0.19281732636077964  0.4060385414216485  1.0000
  H   H7        1.0  0.5991484755234062  0.3074448559921402  0.9062291607977557  1.0000
  H   H8        1.0  0.9009376534458362  0.8074068617346304  0.5938388113574506  1.0000
  H   H9        1.0  0.6443035699222672  0.44236295480462856  0.1269886444000943  1.0000
  H   H10       1.0  0.8560439385419134  0.9425041361827803  0.3728904055121625  1.0000
  H   H11       1.0  0.35559008590611574  0.5571625122613227  0.873504318935591  1.0000
  H   H12       1.0  0.14377972434486136  0.057619972771333024  0.626644269033344  1.0000
  O   O9        1.0  0.5479464032828933  0.6190018373994124  0.16171804033051101  1.0000
  O   O10       1.0  0.9526406182079926  0.11942168960890172  0.3382859187906471  1.0000
  O   O11       1.0  0.45208569639190355  0.3803550521973921  0.8386993123401868  1.0000
  O   O12       1.0  0.04745900895966002  0.8806574876743715  0.6614532832086971  1.0000
