data_image0
_chemical_formula_structural       C4H4O8H8O4
_chemical_formula_sum              "C4 H12 O12"
_cell_length_a       6.119
_cell_length_b       3.607
_cell_length_c       12.056999999999999
_cell_angle_alpha    90.0
_cell_angle_beta     106.32000000000001
_cell_angle_gamma    90.0

_space_group_name_H-M_alt    "P 1"
_space_group_IT_number       1

loop_
  _space_group_symop_operation_xyz
  'x, y, z'

loop_
  _atom_site_type_symbol
  _atom_site_label
  _atom_site_symmetry_multiplicity
  _atom_site_fract_x
  _atom_site_fract_y
  _atom_site_fract_z
  _atom_site_occupancy
  C   C1        1.0  0.9502424467772929  0.044919297931746496  0.05284908917220101  1.0000
  C   C2        1.0  0.5497563440761886  0.5449184083109664  0.4471502439923926  1.0000
  C   C3        1.0  0.04796338253255719  0.9554779143411888  0.9468797513287904  1.0000
  C   C4        1.0  0.45203761645738155  0.4554790990456905  0.5531208895725412  1.0000
  H   H1        1.0  0.007597203877102039  0.011416744235145488  0.2608195132460897  1.0000
  H   H2        1.0  0.4924027139969134  0.5114167212608858  0.23918054881083042  1.0000
  H   H3        1.0  0.9929642693058423  0.9910318000449194  0.7406578940134697  1.0000
  H   H4        1.0  0.5070356225220697  0.49103211100083016  0.7593420364012308  1.0000
  O   O1        1.0  0.06912733886233544  0.9370309131415054  0.1507107801299187  1.0000
  O   O2        1.0  0.4308729679552545  0.4370309670899128  0.34928800837418617  1.0000
  O   O3        1.0  0.93005901930674  0.06655514194803978  0.8491185022614212  1.0000
  O   O4        1.0  0.5699407895170339  0.5665551175576902  0.65088277609944  1.0000
  O   O5        1.0  0.761057605163551  0.2170193442142551  0.03076919158279872  1.0000
  O   O6        1.0  0.738941025842075  0.7170179966619786  0.4692310275160493  1.0000
  O   O7        1.0  0.23578116928879628  0.7797620804993034  0.968554052243708  1.0000
  O   O8        1.0  0.2642199109806043  0.27976300817255256  0.5314455922130881  1.0000
  H   H5        1.0  0.3954620422630784  0.6728971777260472  0.09815551560597534  1.0000
  H   H6        1.0  0.10453775682131815  0.1728969081110454  0.4018444948874094  1.0000
  H   H7        1.0  0.6032137756745252  0.3264616517081888  0.9002587823716512  1.0000
  H   H8        1.0  0.8967863456958157  0.8264618565978417  0.5997411183911636  1.0000
  H   H9        1.0  0.6242454757825762  0.410332783835067  0.1312256348482528  1.0000
  H   H10       1.0  0.8757545865584764  0.910332895572051  0.36877443103534396  1.0000
  H   H11       1.0  0.37417195964406763  0.5874579843824401  0.8675173806884352  1.0000
  H   H12       1.0  0.1258276910217847  0.08745784961455769  0.632482525283516  1.0000
  O   O9        1.0  0.5333198739314923  0.5911379173899073  0.16330421352813607  1.0000
  O   O10       1.0  0.9666800754544823  0.0911379812847468  0.3366957580164117  1.0000
  O   O11       1.0  0.46550987846087916  0.4084988808149405  0.8351895152433354  1.0000
  O   O12       1.0  0.03449022128312752  0.908498646007558  0.6648105777486286  1.0000
