data_image0
_chemical_formula_structural       S8N8O24H24
_chemical_formula_sum              "S8 N8 O24 H24"
_cell_length_a       8.115
_cell_length_b       8.066
_cell_length_c       9.248
_cell_angle_alpha    90.0
_cell_angle_beta     90.0
_cell_angle_gamma    90.0

_space_group_name_H-M_alt    "P 1"
_space_group_IT_number       1

loop_
  _space_group_symop_operation_xyz
  'x, y, z'

loop_
  _atom_site_type_symbol
  _atom_site_label
  _atom_site_symmetry_multiplicity
  _atom_site_fract_x
  _atom_site_fract_y
  _atom_site_fract_z
  _atom_site_occupancy
  S   S1        1.0  0.6675314515075587  0.08996748673600388  0.33173077157723874  1.0000
  S   S2        1.0  0.1675303481950425  0.4100335709716405  0.6682690049779015  1.0000
  S   S3        1.0  0.3324692605515444  0.589966898015607  0.16826930654477765  1.0000
  S   S4        1.0  0.8324688049499942  0.910032951792692  0.8317309773716391  1.0000
  S   S5        1.0  0.33274325268111166  0.9099844578035823  0.6680716797733594  1.0000
  S   S6        1.0  0.8327431327044157  0.5900156895905713  0.3319283670062297  1.0000
  S   S7        1.0  0.6672563701698019  0.40998461629633937  0.8319281232245859  1.0000
  S   S8        1.0  0.16725697097225137  0.09001555790530015  0.16807163140767423  1.0000
  N   N1        1.0  0.5416737388527473  0.2353308116923164  0.4250094158376605  1.0000
  N   N2        1.0  0.041673909404998724  0.264669095213132  0.5749905268311831  1.0000
  N   N3        1.0  0.45832606863004577  0.735330874390396  0.07499058894628359  1.0000
  N   N4        1.0  0.9583260948383756  0.7646691467821356  0.9250094561180946  1.0000
  N   N5        1.0  0.45855543428258855  0.7646936597920654  0.5748208999249041  1.0000
  N   N6        1.0  0.9585554571813907  0.7353062952799564  0.4251790498752577  1.0000
  N   N7        1.0  0.5414446279488264  0.2646936587132102  0.9251790619876633  1.0000
  N   N8        1.0  0.041444608917075375  0.23530628029032005  0.07482098892058388  1.0000
  O   O1        1.0  0.5565776740594626  0.9490487050115425  0.31807718898134113  1.0000
  O   O2        1.0  0.0565782340665075  0.5509506542455782  0.6819226676386458  1.0000
  O   O3        1.0  0.443421978792686  0.44904914674599306  0.1819227226401364  1.0000
  O   O4        1.0  0.9434222168397552  0.050951053607650246  0.8180772207545749  1.0000
  O   O5        1.0  0.4433632294027972  0.05132833964076975  0.6806842027688822  1.0000
  O   O6        1.0  0.9433633949859742  0.4486716183172746  0.31931578575580344  1.0000
  O   O7        1.0  0.5566367247208582  0.5513281244853251  0.8193158239069327  1.0000
  O   O8        1.0  0.05663666105681751  0.9486716283964175  0.1806842653607885  1.0000
  O   O9        1.0  0.8041688922088537  0.06467380010409399  0.4311010103929487  1.0000
  O   O10       1.0  0.3041692368343563  0.4353261981491249  0.5688988242213577  1.0000
  O   O11       1.0  0.1958307713863438  0.5646738868986598  0.06889885150762476  1.0000
  O   O12       1.0  0.6958310622307622  0.9353261428087286  0.9311009844149285  1.0000
  O   O13       1.0  0.19528629332488523  0.9343104563544646  0.569369022255536  1.0000
  O   O14       1.0  0.6952863862462721  0.5656895057704822  0.4306309172589359  1.0000
  O   O15       1.0  0.8047137887988859  0.4343105222861779  0.9306310837700283  1.0000
  O   O16       1.0  0.30471362673745117  0.06568956590628078  0.06936912469396588  1.0000
  O   O17       1.0  0.7072291578273757  0.1749921054083307  0.19827188109831154  1.0000
  O   O18       1.0  0.20722922216544007  0.32500757794438273  0.8017284630655893  1.0000
  O   O19       1.0  0.2927707772121753  0.6749922912525539  0.3017283212325126  1.0000
  O   O20       1.0  0.7927708287197238  0.8250076845691621  0.6982716683180406  1.0000
  O   O21       1.0  0.2941692600767601  0.8256491780510353  0.8021022661569777  1.0000
  O   O22       1.0  0.79416931129633  0.6743507879472413  0.19789775474261667  1.0000
  O   O23       1.0  0.7058307834358368  0.32564911204805996  0.6978977650262598  1.0000
  O   O24       1.0  0.20583084520428443  0.17435094131354803  0.3021022934937448  1.0000
  H   H1        1.0  0.5993600608591418  0.34998952321988486  0.43356974554739675  1.0000
  H   H2        1.0  0.09935994595970048  0.15001055391487272  0.5664301855005773  1.0000
  H   H3        1.0  0.4006400700954868  0.8499895247504429  0.06643025109660419  1.0000
  H   H4        1.0  0.9006400053430503  0.6500104747528643  0.9335697203508875  1.0000
  H   H5        1.0  0.40089544333318305  0.6499746221115195  0.5664125821944582  1.0000
  H   H6        1.0  0.9008953661487722  0.8500254228810332  0.43358746118233193  1.0000
  H   H7        1.0  0.5991045591644251  0.14997456664707856  0.9335874511432728  1.0000
  H   H8        1.0  0.09910458050757023  0.3500253523341713  0.0664125784498733  1.0000
  H   H9        1.0  0.43208430996860603  0.2491030885282876  0.368754790228233  1.0000
  H   H10       1.0  0.9320842207800626  0.2508969903472063  0.6312452294517356  1.0000
  H   H11       1.0  0.5679156938346074  0.7491030190100125  0.13124525306563992  1.0000
  H   H12       1.0  0.06791568645579932  0.7508968961140386  0.8687547506657728  1.0000
  H   H13       1.0  0.568312642378201  0.7511827688393728  0.6309078287430747  1.0000
  H   H14       1.0  0.06831266776545958  0.7488172652345428  0.3690921509814039  1.0000
  H   H15       1.0  0.4316874411651355  0.25118267420231094  0.8690921382068043  1.0000
  H   H16       1.0  0.931687426373154  0.2488172734883257  0.13090787132990234  1.0000
  H   H17       1.0  0.5156236781942313  0.18953571345979228  0.5275286215947094  1.0000
  H   H18       1.0  0.01562361329060482  0.3104643896866153  0.4724713418999282  1.0000
  H   H19       1.0  0.4843763133440496  0.6895355771261447  0.9724713659858272  1.0000
  H   H20       1.0  0.9843763444531395  0.8104643845134273  0.027528611384775782  1.0000
  H   H21       1.0  0.4843574359698267  0.810262764619408  0.47221664498564087  1.0000
  H   H22       1.0  0.9843574088003327  0.6897371782426494  0.5277833906271789  1.0000
  H   H23       1.0  0.5156425509005133  0.31026282277267797  0.027783375599298468  1.0000
  H   H24       1.0  0.01564264344481439  0.18973714148165244  0.9722166857574189  1.0000
