data_image0
_chemical_formula_structural       S8N8O24H24
_chemical_formula_sum              "S8 N8 O24 H24"
_cell_length_a       7.910640810416664
_cell_length_b       7.937756359503695
_cell_length_c       9.415872084925553
_cell_angle_alpha    89.99461674396932
_cell_angle_beta     89.99703158846478
_cell_angle_gamma    90.00019881915641

_space_group_name_H-M_alt    "P 1"
_space_group_IT_number       1

loop_
  _space_group_symop_operation_xyz
  'x, y, z'

loop_
  _atom_site_type_symbol
  _atom_site_label
  _atom_site_symmetry_multiplicity
  _atom_site_fract_x
  _atom_site_fract_y
  _atom_site_fract_z
  _atom_site_occupancy
  S   S1        1.0  0.6673788411023905  0.08247564571531295  0.3331565858183861  1.0000
  S   S2        1.0  0.16721535606422686  0.41797103828774296  0.6668162177407212  1.0000
  S   S3        1.0  0.3327808838360697  0.5821562255593565  0.16694333188329438  1.0000
  S   S4        1.0  0.8322755534696109  0.9176262851676145  0.8330512253439047  1.0000
  S   S5        1.0  0.3326428100033451  0.9179098239077754  0.6669893521928786  1.0000
  S   S6        1.0  0.8326253476867225  0.5823620533846569  0.3332878453422149  1.0000
  S   S7        1.0  0.6673956612511833  0.41776248978127595  0.8331605495399294  1.0000
  S   S8        1.0  0.1670955911678236  0.08189401721675635  0.16673655152286038  1.0000
  N   N1        1.0  0.5380368924802499  0.23132153876271802  0.4233598066070258  1.0000
  N   N2        1.0  0.03805213572945901  0.2689065885658238  0.5768002122233987  1.0000
  N   N3        1.0  0.46231892375235456  0.7307636277422546  0.0765814412848711  1.0000
  N   N4        1.0  0.9617816702802505  0.7688094542183467  0.9231956123562646  1.0000
  N   N5        1.0  0.46202595117792356  0.7690792436449363  0.5767456229413647  1.0000
  N   N6        1.0  0.9623348306032482  0.731281869725175  0.4231934406644551  1.0000
  N   N7        1.0  0.5381926173092175  0.26860990205839747  0.923163706940178  1.0000
  N   N8        1.0  0.03792040158573912  0.23097210073330962  0.07668473042778785  1.0000
  O   O1        1.0  0.5523727466416577  0.9396192479540089  0.32218712825681367  1.0000
  O   O2        1.0  0.05226021753529721  0.5609592305491753  0.6775620940958853  1.0000
  O   O3        1.0  0.44755295164129705  0.43906011489435676  0.177860549736236  1.0000
  O   O4        1.0  0.9470943462290616  0.06068514192847164  0.8222178301170303  1.0000
  O   O5        1.0  0.4474845526600493  0.06097847912823764  0.6778876750163679  1.0000
  O   O6        1.0  0.9476561456782259  0.4395156545223854  0.32227057904986656  1.0000
  O   O7        1.0  0.5523621840421372  0.5606491870510553  0.8223532633810066  1.0000
  O   O8        1.0  0.051974555169842104  0.9390275059628215  0.1774368953558287  1.0000
  O   O9        1.0  0.8076270242400563  0.05749661480204223  0.4311136687230461  1.0000
  O   O10       1.0  0.3076473935405486  0.44292114212973593  0.5689714189037262  1.0000
  O   O11       1.0  0.1921730210253079  0.5573275933009516  0.06927534831603845  1.0000
  O   O12       1.0  0.6919050080806135  0.9424546004302788  0.9309525314576649  1.0000
  O   O13       1.0  0.19222951156168389  0.9429379806298974  0.5691361887169896  1.0000
  O   O14       1.0  0.6924889234327408  0.5574561604979239  0.43138607756199165  1.0000
  O   O15       1.0  0.8075622904472383  0.44278598111494966  0.9312053172731288  1.0000
  O   O16       1.0  0.3076494521043936  0.05696892711517976  0.0690478964069542  1.0000
  O   O17       1.0  0.7072659078064489  0.1676629443055855  0.2012739322540728  1.0000
  O   O18       1.0  0.20690675053095556  0.33308354948978297  0.7988435794041835  1.0000
  O   O19       1.0  0.29327844449205465  0.6674790209569255  0.29881291404906507  1.0000
  O   O20       1.0  0.7924834144573347  0.8325630689142605  0.7010885810516421  1.0000
  O   O21       1.0  0.29283521511281674  0.8328597484954753  0.7989204547124678  1.0000
  O   O22       1.0  0.7924516218676324  0.6674487669654652  0.2014144518345097  1.0000
  O   O23       1.0  0.7073713115757643  0.3328258721977561  0.7011975339740171  1.0000
  O   O24       1.0  0.2066299168370565  0.16693404210388665  0.29871364355315544  1.0000
  H   H1        1.0  0.5972219685350295  0.34974078388206303  0.43013759430757287  1.0000
  H   H2        1.0  0.09709572149820227  0.1502754548934601  0.570696458237581  1.0000
  H   H3        1.0  0.4035758298101599  0.8494541038495474  0.0703526983399287  1.0000
  H   H4        1.0  0.9027487982252619  0.6502692069504875  0.9299447916974515  1.0000
  H   H5        1.0  0.4032280197354162  0.6503485163594862  0.5705654816943143  1.0000
  H   H6        1.0  0.9033540051961255  0.8498031229606214  0.4297539207052695  1.0000
  H   H7        1.0  0.5972534149237378  0.15003694085031383  0.9296187597002967  1.0000
  H   H8        1.0  0.09678585517085544  0.3496229445206934  0.0708236094476359  1.0000
  H   H9        1.0  0.42534782073996463  0.24192100192005175  0.36597186004163135  1.0000
  H   H10       1.0  0.9250195972822269  0.25896839585931486  0.6339480733681779  1.0000
  H   H11       1.0  0.5753827621989106  0.7402968634993811  0.13369706229447192  1.0000
  H   H12       1.0  0.07443595203859671  0.7584877797104611  0.8656585797261852  1.0000
  H   H13       1.0  0.5751839285866627  0.7593875721756619  0.6337232445022293  1.0000
  H   H14       1.0  0.07508452291883191  0.7413277706137628  0.36575272530868336  1.0000
  H   H15       1.0  0.4254112346476054  0.2583104070141285  0.8658193574823195  1.0000
  H   H16       1.0  0.9247696152964519  0.24048265175904018  0.1337208677852962  1.0000
  H   H17       1.0  0.5102414798722459  0.18455500010151266  0.5252673132638903  1.0000
  H   H18       1.0  0.010818213539317074  0.3151348251746688  0.47461465673266595  1.0000
  H   H19       1.0  0.4894746634081855  0.6842557405643072  0.9744724171199188  1.0000
  H   H20       1.0  0.98970949559993  0.8156283083342454  0.025093054162756232  1.0000
  H   H21       1.0  0.48906588334402856  0.8154932387061173  0.474580951018213  1.0000
  H   H22       1.0  0.9900272123901344  0.6846175074434446  0.5251607182909622  1.0000
  H   H23       1.0  0.5105840127272208  0.3149998353171625  0.02521088391345934  1.0000
  H   H24       1.0  0.010853909136766286  0.18498451819206208  0.9744227622217588  1.0000
