# CIF file generated from CASTEP cell file
# https://gist.github.com/blake-armstrong/93facdde07a6e0a1ddb51857dd48e3f1
# Structure converted from CASTEP

data_structure

_cell_length_a    8.053955303016400
_cell_length_b    8.045232303255631
_cell_length_c    9.394024779751900
_cell_angle_alpha 90.000000000000000
_cell_angle_beta  90.000000000000000
_cell_angle_gamma 90.000000000000000

_symmetry_space_group_name_H-M 'P 1'
_symmetry_Int_Tables_number 1

loop_
_atom_site_label
_atom_site_type_symbol
_atom_site_fract_x
_atom_site_fract_y
_atom_site_fract_z
H1       H     0.095916403030135    0.349922301290088    0.069079192140020
H2       H    -0.072042384318964    0.246418167939839    0.132105233396723
H3       H     0.012243583183007    0.189652768846248   -0.025197461737863
H4       H     0.404083596969865    0.650077698709912    0.569079192140019
H5       H     0.572042384318964    0.753581832060161    0.632105233396722
H6       H     0.487756416816993    0.810347231153751    0.474802538262137
H7       H     0.595916403030135    0.150077698709912    0.930920807859981
H8       H     0.427957615681036    0.253581832060161    0.867894766603278
H9       H     0.512243583183007    0.310347231153751    1.025197461737864
H10      H     0.904083596969865    0.849922301290088    0.430920807859980
H11      H     1.072042384318965    0.746418167939839    0.367894766603277
H12      H     0.987756416816993    0.689652768846249    0.525197461737863
H13      H     0.904083596969865    0.650077698709912    0.930920807859981
H14      H     1.072042384318965    0.753581832060161    0.867894766603278
H15      H     0.987756416816993    0.810347231153751    1.025197461737864
H16      H     0.595916403030135    0.349922301290088    0.430920807859980
H17      H     0.427957615681036    0.246418167939839    0.367894766603277
H18      H     0.512243583183007    0.189652768846248    0.525197461737863
H19      H     0.404083596969865    0.849922301290088    0.069079192140020
H20      H     0.572042384318964    0.746418167939839    0.132105233396723
H21      H     0.487756416816993    0.689652768846249   -0.025197461737863
H22      H     0.095916403030135    0.150077698709912    0.569079192140019
H23      H    -0.072042384318964    0.253581832060161    0.632105233396722
H24      H     0.012243583183007    0.310347231153751    0.474802538262137
N1       N     0.038155117270452    0.234650628992666    0.076098967689796
N2       N     0.461844882729548    0.765349371007334    0.576098967689796
N3       N     0.538155117270452    0.265349371007334    0.923901032310204
N4       N     0.961844882729548    0.734650628992666    0.423901032310204
N5       N     0.961844882729548    0.765349371007334    0.923901032310204
N6       N     0.538155117270452    0.234650628992666    0.423901032310204
N7       N     0.461844882729548    0.734650628992666    0.076098967689796
N8       N     0.038155117270452    0.265349371007334    0.576098967689796
O1       O     0.055134814753358   -0.055321663486050    0.179395368632453
O2       O     0.305072999272407    0.062713222480541    0.070309658975262
O3       O     0.205584288590807    0.170395454677382    0.300432511298420
O4       O     0.444865185246642    1.055321663486051    0.679395368632453
O5       O     0.194927000727593    0.937286777519459    0.570309658975261
O6       O     0.294415711409193    0.829604545322618    0.800432511298420
O7       O     0.555134814753358    0.555321663486050    0.820604631367547
O8       O     0.805072999272407    0.437286777519459    0.929690341024739
O9       O     0.705584288590808    0.329604545322618    0.699567488701580
O10      O     0.944865185246642    0.444678336513950    0.320604631367547
O11      O     0.694927000727593    0.562713222480541    0.429690341024738
O12      O     0.794415711409192    0.670395454677382    0.199567488701580
O13      O     0.944865185246642    1.055321663486051    0.820604631367547
O14      O     0.694927000727593    0.937286777519459    0.929690341024739
O15      O     0.794415711409192    0.829604545322618    0.699567488701580
O16      O     0.555134814753358   -0.055321663486050    0.320604631367547
O17      O     0.805072999272407    0.062713222480541    0.429690341024738
O18      O     0.705584288590808    0.170395454677382    0.199567488701580
O19      O     0.444865185246642    0.444678336513950    0.179395368632453
O20      O     0.194927000727593    0.562713222480541    0.070309658975262
O21      O     0.294415711409193    0.670395454677382    0.300432511298420
O22      O     0.055134814753358    0.555321663486050    0.679395368632453
O23      O     0.305072999272407    0.437286777519459    0.570309658975261
O24      O     0.205584288590807    0.329604545322618    0.800432511298420
S1       S     0.167775204330777    0.085292640144403    0.168739949436367
S2       S     0.332224795669223    0.914707359855596    0.668739949436367
S3       S     0.667775204330777    0.414707359855596    0.831260050563633
S4       S     0.832224795669223    0.585292640144404    0.331260050563633
S5       S     0.832224795669223    0.914707359855596    0.831260050563633
S6       S     0.667775204330777    0.085292640144403    0.331260050563633
S7       S     0.332224795669223    0.585292640144404    0.168739949436367
S8       S     0.167775204330777    0.414707359855596    0.668739949436367
