data_cif

_audit_creation_method             'generated by GULP'

_symmetry_space_group_name_H-M     'P B C A         '
_symmetry_Int_Tables_number        61
_symmetry_cell_setting             Orthorhombic

_cell_length_a                       7.807028
_cell_length_b                       7.843815
_cell_length_c                       8.304689
_cell_angle_alpha                   90.000000
_cell_angle_beta                    90.000000
_cell_angle_gamma                   90.000000

loop_
_atom_site_label
_atom_site_fract_x
_atom_site_fract_y
_atom_site_fract_z
_atom_site_occupancy
  S4          0.16024      0.09724      0.15732  1.0000
  N1          0.03881      0.23217      0.04566  1.0000
  O3          0.02214      0.98995      0.21163  1.0000
  O3          0.26668      0.03220      0.02955  1.0000
  O3          0.23210      0.22112      0.26636  1.0000
  H2          0.10501      0.34455      0.04966  1.0000
  H2          0.92423      0.23659      0.10571  1.0000
  H2          0.04038      0.17454      0.93514  1.0000
