data_image0
_chemical_formula_structural       C42O6H30
_chemical_formula_sum              "C42 O6 H30"
_cell_length_a       8.56920875078389
_cell_length_b       8.573459728212724
_cell_length_c       14.844927121898136
_cell_angle_alpha    89.97186544623906
_cell_angle_beta     90.44568938590909
_cell_angle_gamma    120.08551964621833

_space_group_name_H-M_alt    "P 1"
_space_group_IT_number       1

loop_
  _space_group_symop_operation_xyz
  'x, y, z'

loop_
  _atom_site_type_symbol
  _atom_site_label
  _atom_site_symmetry_multiplicity
  _atom_site_fract_x
  _atom_site_fract_y
  _atom_site_fract_z
  _atom_site_occupancy
  C   C1        1.0  0.20340418180954548  0.14972353020548507  0.04760439289778207  1.0000
  C   C2        1.0  0.8488333348206343  0.04397016721716175  0.37891907958380094  1.0000
  C   C3        1.0  0.949198064068571  0.807492139204821  0.7147556906513045  1.0000
  C   C4        1.0  0.16068350677400067  0.19564865159383996  0.9542312596092593  1.0000
  C   C5        1.0  0.037821256243072525  0.8496783084992642  0.6218903054653699  1.0000
  C   C6        1.0  0.8035807413672201  0.9531165183683786  0.2860577144310241  1.0000
  C   C7        1.0  0.20935826841560953  0.9830420427991913  0.05974049500625789  1.0000
  C   C8        1.0  0.01497767249378068  0.21784537102486665  0.39094347202441426  1.0000
  C   C9        1.0  0.7762101040388315  0.8009784881881222  0.725928732401046  1.0000
  C   C10       1.0  0.995638630128731  0.204518932604479  0.9406130641203054  1.0000
  C   C11       1.0  0.21186865928630702  0.015008877631830009  0.6097746477584961  1.0000
  C   C12       1.0  0.7932019116472034  0.7783243318307961  0.2745647381635714  1.0000
  C   C13       1.0  0.2740203799318474  0.9556868537087402  0.14192036462611096  1.0000
  C   C14       1.0  0.043571734013656875  0.31050500330025077  0.4728270378189516  1.0000
  C   C15       1.0  0.6863119279128145  0.7413487873165304  0.8083311088493257  1.0000
  C   C16       1.0  0.9688029978488998  0.26611610116950996  0.8575009241849364  1.0000
  C   C17       1.0  0.29877559171837714  0.044233125917904396  0.5265736057396975  1.0000
  C   C18       1.0  0.7354011754439594  0.689950366116884  0.19108255255556122  1.0000
  C   C19       1.0  0.2785441904126656  0.7979322406005595  0.1558809488359589  1.0000
  C   C20       1.0  0.20046784788429642  0.4745867040055427  0.4862688473014827  1.0000
  C   C21       1.0  0.5232062933323176  0.7355078401921825  0.8210081830138981  1.0000
  C   C22       1.0  0.8128958477723739  0.2740179917238285  0.8423005186332817  1.0000
  C   C23       1.0  0.462672144786735  0.20050363936496746  0.5129446793554067  1.0000
  C   C24       1.0  0.7272405340160517  0.5258093563592424  0.17775425744344048  1.0000
  C   C25       1.0  0.216901013681606  0.66585893109361  0.08854640971289617  1.0000
  C   C26       1.0  0.3305429253155216  0.546157320787447  0.41878579325917453  1.0000
  C   C27       1.0  0.44968213500603166  0.7907572169197672  0.7522019658251705  1.0000
  C   C28       1.0  0.6821235637195633  0.21870117529072555  0.9092976849847244  1.0000
  C   C29       1.0  0.5399989001289471  0.32922671261588576  0.5816407244640774  1.0000
  C   C30       1.0  0.7780638984440797  0.44960820351667796  0.24710448745137512  1.0000
  C   C31       1.0  0.1525723064124802  0.6927937853821756  0.0068198869923687955  1.0000
  C   C32       1.0  0.30254883671198607  0.454000455536124  0.3374615366310372  1.0000
  C   C33       1.0  0.5389461099350674  0.8503184583744275  0.6703238170234663  1.0000
  C   C34       1.0  0.7084361646532559  0.15707912300868251  0.991836552845686  1.0000
  C   C35       1.0  0.45375960405562665  0.300385837830821  0.6643457786580071  1.0000
  C   C36       1.0  0.8352904660188089  0.5371481169291202  0.3301479196806129  1.0000
  C   C37       1.0  0.14969141904666813  0.8512682050777457  0.9919014342757181  1.0000
  C   C38       1.0  0.1449347560564908  0.2908615164051858  0.3230504016939381  1.0000
  C   C39       1.0  0.7011854236435341  0.8545876409438352  0.6566822729574366  1.0000
  C   C40       1.0  0.8649824687795701  0.15075941397160164  0.007989638528488108  1.0000
  C   C41       1.0  0.2906770081476113  0.14359053033154537  0.6788651349402429  1.0000
  C   C42       1.0  0.8421781213584246  0.7005585944340196  0.3443692826711051  1.0000
  O   O1        1.0  0.24208084427297183  0.26478171990322863  0.10631759132093904  1.0000
  O   O2        1.0  0.7332005777953482  0.9685676152329202  0.4369395141560306  1.0000
  O   O3        1.0  0.025902797807062828  0.7693123997070539  0.7737361393817035  1.0000
  O   O4        1.0  0.27706257465592343  0.23430880672187623  0.8968709315674736  1.0000
  O   O5        1.0  0.9601788501385345  0.7328514354338764  0.5638403898126411  1.0000
  O   O6        1.0  0.7666040368675126  0.030408038365987093  0.22705138739790587  1.0000
  H   H1        1.0  0.3206822107233175  0.06102905545284002  0.1936429752859016  1.0000
  H   H2        1.0  0.9400175189300233  0.25082176833053765  0.5247706761628814  1.0000
  H   H3        1.0  0.7471991662722308  0.6996125631633221  0.8612740337150312  1.0000
  H   H4        1.0  0.07310247019377365  0.308036726645048  0.8060961390633896  1.0000
  H   H5        1.0  0.23507558642002377  0.9415443860140541  0.473811401743465  1.0000
  H   H6        1.0  0.6972850587351884  0.7530337650466742  0.13775894946754738  1.0000
  H   H7        1.0  0.32911755488214967  0.7763725481375094  0.21982730364481065  1.0000
  H   H8        1.0  0.2229678567382078  0.5473159586465809  0.549952069885863  1.0000
  H   H9        1.0  0.45276470878962616  0.6890582855530601  0.8851377126675314  1.0000
  H   H10       1.0  0.7918794765743539  0.32261876414536084  0.7777066018174683  1.0000
  H   H11       1.0  0.5309005197606294  0.2236292649519781  0.4482124150722533  1.0000
  H   H12       1.0  0.6825000290374146  0.4567786086375082  0.11270639489976907  1.0000
  H   H13       1.0  0.21916090277507877  0.5406873290114532  0.09994280969187448  1.0000
  H   H14       1.0  0.4551245595284112  0.6749182051474663  0.429844371363998  1.0000
  H   H15       1.0  0.3214946425466803  0.787250947150981  0.7626690315097495  1.0000
  H   H16       1.0  0.5582388835383215  0.22332335394402078  0.8970753303056569  1.0000
  H   H17       1.0  0.6687042418282215  0.4532638245889686  0.5705375702436297  1.0000
  H   H18       1.0  0.7734461799254394  0.32091206221285135  0.23617072066222136  1.0000
  H   H19       1.0  0.10318718933146385  0.5889316620531251  0.954264213992404  1.0000
  H   H20       1.0  0.4048632633883206  0.5089142123028155  0.2847841301270145  1.0000
  H   H21       1.0  0.4823609997745924  0.8951087742102588  0.616643627473291  1.0000
  H   H22       1.0  0.6054414096409357  0.11216496317728525  0.04408148806618497  1.0000
  H   H23       1.0  0.5132384753884609  0.40155279958328916  0.7180351845496546  1.0000
  H   H24       1.0  0.8769304280082948  0.47860240767273865  0.3842079024260785  1.0000
  H   H25       1.0  0.10085011468576664  0.8716077787455736  0.9269784853457852  1.0000
  H   H26       1.0  0.12392871210358405  0.22106120319454706  0.25843914393939765  1.0000
  H   H27       1.0  0.7687229496849617  0.8994577462548199  0.5916143591949631  1.0000
  H   H28       1.0  0.8848645447194105  0.10405326347120207  0.07350388269619518  1.0000
  H   H29       1.0  0.22570463726997747  0.1218115739641709  0.744582342125637  1.0000
  H   H30       1.0  0.886022881413789  0.7670958889251673  0.41018441369879377  1.0000
