data_cif

_audit_creation_method             'generated by GULP'

_symmetry_space_group_name_H-M     'P 1             '
_symmetry_Int_Tables_number        1
_symmetry_cell_setting             Triclinic   

_cell_length_a                       8.617466
_cell_length_b                       8.327647
_cell_length_c                      13.412102
_cell_angle_alpha                   79.759815
_cell_angle_beta                    90.848669
_cell_angle_gamma                  121.524527

loop_
_atom_site_label
_atom_site_fract_x
_atom_site_fract_y
_atom_site_fract_z
_atom_site_occupancy
  C3          0.22640      0.19010      0.05296  1.0000
  C3          0.84063      0.08697      0.42812  1.0000
  C3          0.96067      0.67988      0.76822  1.0000
  C3          0.03135      0.71846      0.65362  1.0000
  C3          0.79776      0.03562      0.31989  1.0000
  C3          0.16798      0.21713      0.94174  1.0000
  C1          0.24564      0.01957      0.09085  1.0000
  C1          0.02845      0.24603      0.44344  1.0000
  C1          0.79468      0.68892      0.79173  1.0000
  C1          0.20818      0.90403      0.61122  1.0000
  C1          0.81681      0.87675      0.29522  1.0000
  C1          0.99019      0.20931      0.92644  1.0000
  C1          0.31278      0.00054      0.18604  1.0000
  C1          0.05543      0.32268      0.53220  1.0000
  C1          0.72792      0.65262      0.89358  1.0000
  C1          0.28687      0.93500      0.51284  1.0000
  C1          0.75294      0.80765      0.20519  1.0000
  C1          0.92322      0.19648      0.82972  1.0000
  C1          0.33343      0.84414      0.22120  1.0000
  C1          0.23041      0.46627      0.54989  1.0000
  C1          0.57920      0.66961      0.91675  1.0000
  C1          0.44867      0.10910      0.47235  1.0000
  C1          0.76935      0.65923      0.18203  1.0000
  C1          0.75773      0.18685      0.81331  1.0000
  C1          0.28791      0.70576      0.16167  1.0000
  C1          0.37982      0.53449      0.47902  1.0000
  C1          0.49509      0.72167      0.83826  1.0000
  C1          0.53568      0.25209      0.53041  1.0000
  C1          0.85206      0.58098      0.24709  1.0000
  C1          0.65650      0.18881      0.89341  1.0000
  C1          0.21959      0.72218      0.06751  1.0000
  C1          0.35418      0.45892      0.39050  1.0000
  C1          0.55969      0.75678      0.73664  1.0000
  C1          0.45858      0.22298      0.62815  1.0000
  C1          0.91446      0.64732      0.33713  1.0000
  C1          0.72170      0.20167      0.98990  1.0000
  C1          0.19824      0.87782      0.03222  1.0000
  C1          0.17930      0.31533      0.37239  1.0000
  C1          0.70811      0.73978      0.71339  1.0000
  C1          0.29580      0.05020      0.66841  1.0000
  C1          0.89634      0.79402      0.36160  1.0000
  C1          0.88791      0.21262      0.00644  1.0000
  O4          0.25718      0.30594      0.10707  1.0000
  O4          0.72330      0.99296      0.49968  1.0000
  O4          0.04600      0.65397      0.83634  1.0000
  O4          0.94151      0.60320      0.59955  1.0000
  O4          0.74893      0.12275      0.25759  1.0000
  O4          0.26453      0.23789      0.86857  1.0000
  H2          0.35032      0.10774      0.23259  1.0000
  H2          0.94026      0.27077      0.58764  1.0000
  H2          0.79265      0.61171      0.95443  1.0000
  H2          0.22349      0.82372      0.46786  1.0000
  H2          0.68858      0.86717      0.15369  1.0000
  H2          0.99909      0.19262      0.76711  1.0000
  H2          0.38550      0.83064      0.29446  1.0000
  H2          0.25014      0.52277      0.61917  1.0000
  H2          0.52901      0.64357      0.99532  1.0000
  H2          0.50875      0.13232      0.39656  1.0000
  H2          0.71796      0.60424      0.11363  1.0000
  H2          0.70720      0.17560      0.73862  1.0000
  H2          0.30536      0.58583      0.18833  1.0000
  H2          0.51586      0.64236      0.49389  1.0000
  H2          0.38109      0.73633      0.85610  1.0000
  H2          0.66188      0.38594      0.49951  1.0000
  H2          0.86908      0.47010      0.22714  1.0000
  H2          0.52805      0.18050      0.88062  1.0000
  H2          0.18310      0.61424      0.02155  1.0000
  H2          0.47074      0.50857      0.33688  1.0000
  H2          0.49631      0.79992      0.67575  1.0000
  H2          0.52443      0.33478      0.67279  1.0000
  H2          0.97743      0.58513      0.38780  1.0000
  H2          0.64349      0.20313      0.05217  1.0000
  H2          0.14528      0.88666      0.95883  1.0000
  H2          0.16346      0.25705      0.30394  1.0000
  H2          0.75558      0.76795      0.63413  1.0000
  H2          0.23918      0.03218      0.74423  1.0000
  H2          0.94544      0.84260      0.43207  1.0000
  H2          0.93557      0.22432      0.08172  1.0000
