data_C7H5O
_audit_creation_method 'chmpy python library version 1.0a1'
_cell_length_a 8.113477
_cell_length_b 8.113477
_cell_length_c 12.636966
_cell_angle_alpha 90.0
_cell_angle_beta 90.0
_cell_angle_gamma 119.99999999999999
loop_
_symmetry_equiv_pos_site_id
_symmetry_equiv_pos_as_xyz
                   1 +y,+x,-z
                   2 +x,+y,+z
                   3 -x,-x+y,1/3-z
                   4 -y,+x-y,1/3+z
                   5 -x+y,-x,2/3+z
                   6 +x-y,-y,2/3-z
loop_
_atom_site_label
_atom_site_type_symbol
_atom_site_fract_x
_atom_site_fract_y
_atom_site_fract_z
_atom_site_occupancy
C C       0.238095000000       0.201840000000       0.056597000000       1.000000000000
C C       0.232451000000       0.019012000000       0.082260000000       1.000000000000
C C       0.303442000000      -0.004488000000       0.179892000000       1.000000000000
C C       0.302723000000       0.826356000000       0.202919000000       1.000000000000
C C       0.229559000000       0.677301000000       0.129088000000       1.000000000000
C C       0.156202000000       0.697105000000       0.032473000000       1.000000000000
C C       0.158696000000       0.866899000000       0.009179000000       1.000000000000
O O       0.270891000000       0.322299000000       0.125583000000       1.000000000000
H H       0.361996000000       0.113803000000       0.236035000000       1.000000000000
H H       0.364698000000       0.812754000000       0.277023000000       1.000000000000
H H       0.232469000000       0.546603000000       0.145772000000       1.000000000000
H H       0.097097000000       0.580306000000       0.975204000000       1.000000000000
H H       0.106626000000       0.885327000000       0.932900000000       1.000000000000
#END