data_BENZIL02.b3lyp.6-311G**.dma4.-107.1924.1.3356
_audit_creation_method 'generated by cspy2.0'
_cell_length_a 8.2303
_cell_length_b 8.2303
_cell_length_c 13.3667
_cell_angle_alpha 89.9998
_cell_angle_beta 90.0003
_cell_angle_gamma 120.0001
loop_
_symmetry_equiv_pos_site_id
_symmetry_equiv_pos_as_xyz
1 +x,+y,+z
loop_
_atom_site_label
_atom_site_type_symbol
_atom_site_fract_x
_atom_site_fract_y
_atom_site_fract_z
_atom_site_occupancy
C1 C       0.227420550000       0.193726830000       0.054797690000       1.000000000000
C2 C       0.193728310000       0.227421190000      -0.054796560000       1.000000000000
C3 C       0.231323440000       0.023792780000       0.081898370000       1.000000000000
C4 C       0.023795010000       0.231325470000      -0.081898090000       1.000000000000
C5 C       0.283327170000       0.003256250000       0.177696380000       1.000000000000
C6 C       0.003260450000       0.283331030000      -0.177695940000       1.000000000000
C7 C       0.282965550000      -0.158530690000       0.203829950000       1.000000000000
C8 C      -0.158525790000       0.282970760000      -0.203830350000       1.000000000000
C9 C       0.231786390000      -0.298821670000       0.135448790000       1.000000000000
C10 C      -0.298817990000       0.231791090000      -0.135450200000       1.000000000000
C11 C       0.182094120000      -0.281414020000       0.040934370000       1.000000000000
C12 C      -0.281412240000       0.182097040000      -0.040935950000       1.000000000000
C13 C      -0.119660170000       0.181163200000      -0.013694390000       1.000000000000
C14 C       0.181161640000      -0.119661190000       0.013693650000       1.000000000000
C15 C       0.773145500000       0.966587750000       0.278534120000       1.000000000000
C16 C       0.806836980000       1.033974350000       0.388128210000       1.000000000000
C17 C       0.769242370000       0.792750590000       0.251434300000       1.000000000000
C18 C       0.976770300000       1.207811910000       0.415229710000       1.000000000000
C19 C       0.717239300000       0.720210370000       0.155636400000       1.000000000000
C20 C       0.997304240000       1.280352060000       0.511027290000       1.000000000000
C21 C       0.717600690000       0.558784820000       0.129503650000       1.000000000000
C22 C       1.159090490000       1.441778010000       0.537161670000       1.000000000000
C23 C       0.768778990000       0.469672820000       0.197885490000       1.000000000000
C24 C       1.299383280000       1.530890510000       0.468781750000       1.000000000000
C25 C       0.818470590000       0.536772690000       0.292399820000       1.000000000000
C26 C       1.281978180000       1.463790710000       0.374267750000       1.000000000000
C27 C       1.120226090000       1.301104810000       0.347026220000       1.000000000000
C28 C       0.819403290000       0.699458200000       0.319639720000       1.000000000000
C29 C       0.966585630000       0.773149690000       0.721464330000       1.000000000000
C30 C       1.033972060000       0.806841650000       0.611870400000       1.000000000000
C31 C       0.792748380000       0.769246550000       0.748564090000       1.000000000000
C32 C       1.207809840000       0.976774840000       0.584769670000       1.000000000000
C33 C       0.720208270000       0.717243120000       0.844361740000       1.000000000000
C34 C       1.280349840000       0.997309200000       0.488972190000       1.000000000000
C35 C       0.558782670000       0.717604490000       0.870494480000       1.000000000000
C36 C       1.441775980000       1.159095330000       0.462838530000       1.000000000000
C37 C       0.469670480000       0.768783170000       0.802112820000       1.000000000000
C38 C       1.530888800000       1.299387620000       0.531219080000       1.000000000000
C39 C       0.536770260000       0.818475160000       0.707598740000       1.000000000000
C40 C       1.463789130000       1.281982090000       0.625732990000       1.000000000000
C41 C       1.301103040000       1.120230120000       0.652973790000       1.000000000000
C42 C       0.699455830000       0.819407870000       0.680358850000       1.000000000000
O1 O       0.257655520000       0.318691000000       0.113254440000       1.000000000000
O2 O       0.318693450000       0.257656550000      -0.113252490000       1.000000000000
O3 O       0.742911300000       1.061317140000       0.220076770000       1.000000000000
O4 O       0.681871280000       0.939244570000       0.446584020000       1.000000000000
O5 O       1.061315170000       0.742915140000       0.779921570000       1.000000000000
O6 O       0.939241990000       0.681876410000       0.553414040000       1.000000000000
H1 H       0.105814740000       0.328109840000      -0.222233620000       1.000000000000
H2 H       0.328105680000       0.105809700000       0.222234830000       1.000000000000
H3 H      -0.159368070000       0.330711500000      -0.272318460000       1.000000000000
H4 H       0.330705020000      -0.159374410000       0.272318300000       1.000000000000
H5 H      -0.407261450000       0.246543270000      -0.154970930000       1.000000000000
H6 H       0.246537610000      -0.407265720000       0.154969030000       1.000000000000
H7 H      -0.379604600000       0.148384260000       0.007832410000       1.000000000000
H8 H       0.148381700000      -0.379605490000      -0.007834690000       1.000000000000
H9 H       0.149721470000      -0.103034700000      -0.053240120000       1.000000000000
H10 H      -0.103035020000       0.149721750000       0.053239300000       1.000000000000
H11 H       0.894749560000       1.222576620000       0.555564750000       1.000000000000
H12 H       0.672461360000       0.777985460000       0.111097460000       1.000000000000
H13 H       1.159932330000       1.490361060000       0.605649550000       1.000000000000
H14 H       0.669861710000       0.510201660000       0.061015300000       1.000000000000
H15 H       1.407826780000       1.654086170000       0.488302400000       1.000000000000
H16 H       0.754027610000       0.346477390000       0.178365790000       1.000000000000
H17 H       1.380170970000       1.528270270000       0.325499530000       1.000000000000
H18 H       0.852182400000       0.472293470000       0.341169360000       1.000000000000
H19 H       0.850843000000       0.747524850000       0.386573410000       1.000000000000
H20 H       1.103601390000       1.253038190000       0.280092700000       1.000000000000
H21 H       1.222574170000       0.894754870000       0.444434280000       1.000000000000
H22 H       0.777983470000       0.672464930000       0.888900520000       1.000000000000
H23 H       1.490358920000       1.159937480000       0.394350670000       1.000000000000
H24 H       0.510199590000       0.669865230000       0.938982610000       1.000000000000
H25 H       1.654084600000       1.407831030000       0.511698920000       1.000000000000
H26 H       0.346474990000       0.754031790000       0.821632440000       1.000000000000
H27 H       1.528268930000       1.380174520000       0.674501630000       1.000000000000
H28 H       0.472290900000       0.852187240000       0.658829320000       1.000000000000
H29 H       0.747522390000       0.850847850000       0.613425320000       1.000000000000
H30 H       1.253036530000       1.103605130000       0.719907240000       1.000000000000
#END