# CIF file generated from CASTEP cell file
# https://gist.github.com/blake-armstrong/93facdde07a6e0a1ddb51857dd48e3f1
# Structure converted from CASTEP

data_structure

_cell_length_a    8.363873370591911
_cell_length_b    8.363873370591911
_cell_length_c    13.397855077373700
_cell_angle_alpha 90.000000000000000
_cell_angle_beta  90.000000000000000
_cell_angle_gamma 119.999999999999943

_symmetry_space_group_name_H-M 'P 1'
_symmetry_Int_Tables_number 1

loop_
_atom_site_label
_atom_site_type_symbol
_atom_site_fract_x
_atom_site_fract_y
_atom_site_fract_z
H1       H     0.211968234729749    0.327839116610358    1.228709707014980
H2       H     0.506257360425376    0.336641021901694    1.275126749060925
H3       H     0.664761191602883    0.242559111013437    1.150405597977198
H4       H     0.531338234675420    0.139356234963368    0.981767631663854
H5       H     0.244392947142236    0.134796074371771    0.934656656548517
H6       H     0.672160814617077    0.884129163757502    0.562043040348314
H7       H     0.663358909325740    1.169616384161792    0.608460082394258
H8       H     0.757440820213997    1.422202126227556    0.483738931310529
H9       H     0.860643696264068    1.391982045350165    0.315100964997186
H10      H     0.865203856855664    1.109596918408577    0.267989989881850
H11      H    -0.884129232530066   -0.211968303502314    0.895376373681647
H12      H    -1.169616452934357   -0.506257429197941    0.941793415727591
H13      H    -1.422202195000121   -0.664761260375448    0.817072264643862
H14      H    -1.391982114122730   -0.531338303447985    0.648434298330519
H15      H    -1.109596987181142   -0.244393015914802    0.601323323215184
H16      H    -0.672160936739237    0.211968288079344    0.437956984032414
H17      H    -0.663359031447901    0.506257413774971    0.391539941986470
H18      H    -0.757440942336158    0.664761244952478    0.516261093070197
H19      H    -0.860643818386229    0.531338288025015    0.684899059383541
H20      H    -0.865203978977824    0.244393000491832    0.732010034498877
H21      H     0.884129110407905    0.672160867966673    0.104623650699080
H22      H     1.169616330812196    0.663358962675336    0.058206608653136
H23      H     1.422202072877960    0.757440873563592    0.182927759736865
H24      H     1.391981992000569    0.860643749613663    0.351565726050208
H25      H     1.109596865058982    0.865203910205259    0.398676701165543
H26      H    -0.211968356851909    0.115870820819530    0.771290317365747
H27      H    -0.506257482547537   -0.169616399584763    0.724873275319803
H28      H    -0.664761313725044   -0.422202141650527    0.849594426403532
H29      H    -0.531338356797581   -0.391982060773133    1.018232392716875
H30      H    -0.244393069264397   -0.109596933831547    1.065343367832210
C1       C     0.034051863371674    0.222318619040382    1.054310146833289
C2       C     0.209331927297002    0.230957477228059    1.079387391009099
C3       C     0.283990168219290    0.287475698798565    1.175653968925345
C4       C     0.447354607343878    0.292202840277411    1.200953857103478
C5       C     0.536997532074170    0.239633058940811    1.131087410748735
C6       C     0.462843110243451    0.182510284815994    1.035601786753160
C7       C     0.299951165979718    0.178690547453474    1.009420598628519
C8       C     0.777681312187052    0.811733289969401    0.387643480166624
C9       C     0.769042453999376    0.978374495707054    0.412720724342431
C10      C     0.712524232428870    0.996514515058836    0.508987302258678
C11      C     0.707797090950024    1.155151812704577    0.534287190436812
C12      C     0.760366872286625    1.297364518771470    0.464420744082070
C13      C     0.817489646411440    1.280332871065567    0.368935120086492
C14      C     0.821309383773961    1.121260664164356    0.342753931961852
C15      C    -0.811733358741966   -0.034051932144239    0.720976813499957
C16      C    -0.978374564479620   -0.209331996069567    0.746054057675766
C17      C    -0.996514583831402   -0.283990236991856    0.842320635592011
C18      C    -1.155151881477142   -0.447354676116443    0.867620523770145
C19      C    -1.297364587544035   -0.536997600846735    0.797754077415403
C20      C    -1.280332939838133   -0.462843179016016    0.702268453419826
C21      C    -1.121260732936921   -0.299951234752284    0.676087265295186
C22      C    -0.777681434309213    0.034051916721269    0.612356544214104
C23      C    -0.769042576121536    0.209331980646598    0.587279300038295
C24      C    -0.712524354551031    0.283990221568886    0.491012722122050
C25      C    -0.707797213072184    0.447354660693473    0.465712833943915
C26      C    -0.760366994408786    0.536997585423765    0.535579280298657
C27      C    -0.817489768533601    0.462843163593046    0.631064904294235
C28      C    -0.821309505896121    0.299951219329314    0.657246092418875
C29      C     0.811733236619806    0.777681365536648    0.279023210880770
C30      C     0.978374442357459    0.769042507348971    0.253945966704962
C31      C     0.996514461709241    0.712524285778466    0.157679388788716
C32      C     1.155151759354982    0.707797144299619    0.132379500610582
C33      C     1.297364465421874    0.760366925636220    0.202245946965324
C34      C     1.280332817715972    0.817489699761035    0.297731570960902
C35      C     1.121260610814760    0.821309437123556    0.323912759085541
C36      C    -0.034051985493835    0.188266694607628    0.945689877547437
C37      C    -0.209332049419163    0.021625488869976    0.920612633371627
C38      C    -0.283990290341451    0.003485469518193    0.824346055455383
C39      C    -0.447354729466038   -0.155151828127547    0.799046167277249
C40      C    -0.536997654196331   -0.297364534194440    0.868912613631991
C41      C    -0.462843232365612   -0.280332886488538    0.964398237627568
C42      C    -0.299951288101879   -0.121260679587325    0.990579425752208
O1       O    -0.058435686135618    0.254760434289584    1.113998897317968
O2       O     0.745239496937851    0.686803925212909    0.447332230651300
O3       O    -0.686803993985474    0.058435617363053    0.780665563984633
O4       O    -0.745239619060012   -0.058435632786023    0.552667793729427
O5       O     0.686803871863313    0.745239550287446    0.219334460396094
O6       O     0.058435564013457    0.313196059364122    0.886001127062761
