data_image0
_chemical_formula_structural       C42O6H30
_chemical_formula_sum              "C42 O6 H30"
_cell_length_a       8.4091
_cell_length_b       8.4091
_cell_length_c       13.672
_cell_angle_alpha    90.0
_cell_angle_beta     90.0
_cell_angle_gamma    119.99999999999999

_space_group_name_H-M_alt    "P 1"
_space_group_IT_number       1

loop_
  _space_group_symop_operation_xyz
  'x, y, z'

loop_
  _atom_site_type_symbol
  _atom_site_label
  _atom_site_symmetry_multiplicity
  _atom_site_fract_x
  _atom_site_fract_y
  _atom_site_fract_z
  _atom_site_occupancy
  C   C1        1.0  0.22351962483609158  0.18713487873761186  0.05275982728106951  1.0000
  C   C2        1.0  0.8128684267824395  0.0363832191813039  0.3860911871726181  1.0000
  C   C3        1.0  0.9636153675741372  0.7764809777555779  0.719425823821064  1.0000
  C   C4        1.0  0.18713346244791965  0.2235172201513793  0.9472429371799578  1.0000
  C   C5        1.0  0.03638300850010105  0.8128671750731823  0.6139090419621129  1.0000
  C   C6        1.0  0.7764856856786588  0.9636172200244173  0.2805744280220353  1.0000
  C   C7        1.0  0.23071690145926643  0.01977267124542823  0.07536961862012888  1.0000
  C   C8        1.0  0.9802251345345232  0.2109418251934069  0.40870186618030485  1.0000
  C   C9        1.0  0.7890567898021543  0.7692845969959842  0.7420361483894993  1.0000
  C   C10       1.0  0.019772984452129567  0.23071478214105526  0.9246302415537438  1.0000
  C   C11       1.0  0.21094235117743296  0.9802257401046265  0.5912981253218225  1.0000
  C   C12       1.0  0.7692849004127513  0.7890581595694381  0.25796485627794064  1.0000
  C   C13       1.0  0.286250005316209  0.9980136463670906  0.16927228698481486  1.0000
  C   C14       1.0  0.0019843318444131403  0.28823454556126304  0.5026033329506021  1.0000
  C   C15       1.0  0.7117645119275248  0.7137501959050859  0.8359388988287147  1.0000
  C   C16       1.0  0.9980132443388047  0.2862478776055801  0.8307278539853441  1.0000
  C   C17       1.0  0.2882353387154099  0.001984591354863037  0.4973959793760123  1.0000
  C   C18       1.0  0.713749199026545  0.7117652244092045  0.16406299861500914  1.0000
  C   C19       1.0  0.2889739261158784  0.8384236590399126  0.19230134474261698  1.0000
  C   C20       1.0  0.16157437679287814  0.45054708864145726  0.5256331286350704  1.0000
  C   C21       1.0  0.5494511183756379  0.7110268566784929  0.8589684640363277  1.0000
  C   C22       1.0  0.8384237464519196  0.2889727797610306  0.8076986816111548  1.0000
  C   C23       1.0  0.45054725095469556  0.16157498061201586  0.474366026240323  1.0000
  C   C24       1.0  0.7110283753784854  0.5494537559325404  0.1410329457260404  1.0000
  C   C25       1.0  0.23571928662830982  0.698871747046347  0.12244917594715778  1.0000
  C   C26       1.0  0.30112923949306264  0.536848934114102  0.4557834402975115  1.0000
  C   C27       1.0  0.46315323089160726  0.7642819967830794  0.7891168215172675  1.0000
  C   C28       1.0  0.698869993979019  0.2357170960800348  0.8775501414904727  1.0000
  C   C29       1.0  0.5368496779138631  0.30112788234182386  0.5442170958325041  1.0000
  C   C30       1.0  0.7642813984436576  0.46315233345338486  0.2108825065443613  1.0000
  C   C31       1.0  0.17969693014892432  0.7194948572602707  0.0293112862673008  1.0000
  C   C32       1.0  0.2805016912275572  0.46020108882607796  0.3626474494372875  1.0000
  C   C33       1.0  0.539797271946084  0.8203035114907604  0.6959784367350988  1.0000
  C   C34       1.0  0.7194958364198283  0.17969652125556299  0.9706871343065832  1.0000
  C   C35       1.0  0.4602001339822435  0.2805027697855238  0.6373531622234528  1.0000
  C   C36       1.0  0.820302804393342  0.5397988889515231  0.3040195290837009  1.0000
  C   C37       1.0  0.17754808612567277  0.8793960047587647  0.005468435263209654  1.0000
  C   C38       1.0  0.12060243845317321  0.29815298361438547  0.3388024351339327  1.0000
  C   C39       1.0  0.7018471650644095  0.822452489728415  0.6721352096380186  1.0000
  C   C40       1.0  0.8793960108172398  0.17754782409668074  0.9945306259114665  1.0000
  C   C41       1.0  0.29815324802817567  0.12060274789442642  0.6611976550001221  1.0000
  C   C42       1.0  0.8224496512722304  0.7018462614329151  0.32786451970202024  1.0000
  O   O1        1.0  0.2580220351694123  0.31075898467713453  0.11258238564959118  1.0000
  O   O2        1.0  0.6892456788653027  0.9472670007536751  0.44591516585177665  1.0000
  O   O3        1.0  0.05274032409923628  0.7419809698862341  0.7792476926578702  1.0000
  O   O4        1.0  0.3107556163210273  0.2580195158544153  0.8874192471747675  1.0000
  O   O5        1.0  0.9472677673559418  0.689246174563102  0.5540838646620948  1.0000
  O   O6        1.0  0.741977845285014  0.052734239458574826  0.22075130895970332  1.0000
  H   H1        1.0  0.32743247404997816  0.10845638530242808  0.2224554567995048  1.0000
  H   H2        1.0  0.8915465608979851  0.2189776979104425  0.555789204846968  1.0000
  H   H3        1.0  0.7810218104335935  0.6725659405053233  0.8891228889534805  1.0000
  H   H4        1.0  0.10845593784516155  0.3274351237752309  0.777543884772876  1.0000
  H   H5        1.0  0.21897728989854723  0.8915447978788682  0.4442109649648596  1.0000
  H   H6        1.0  0.6725671881492846  0.7810217713764631  0.11087776019428405  1.0000
  H   H7        1.0  0.33245483864859354  0.8213028299756763  0.2647767478712158  1.0000
  H   H8        1.0  0.1787000680552534  0.5111521196964465  0.5981065691822766  1.0000
  H   H9        1.0  0.48884660738791774  0.6675457653738776  0.931443461334152  1.0000
  H   H10       1.0  0.8213011672539396  0.3324545437325939  0.7352241785148849  1.0000
  H   H11       1.0  0.5111519675723137  0.17870064153731963  0.4018916774992654  1.0000
  H   H12       1.0  0.6675478813090734  0.48884776840426963  0.068559175758142  1.0000
  H   H13       1.0  0.2375240462304912  0.5733620472901071  0.1400369948197942  1.0000
  H   H14       1.0  0.4266410746401091  0.6641637219801326  0.47337033745618884  1.0000
  H   H15       1.0  0.33583628115368536  0.7624735229861956  0.8067030342430396  1.0000
  H   H16       1.0  0.5733614698399957  0.23752556255921142  0.8599639309524488  1.0000
  H   H17       1.0  0.6641634547608402  0.42663918628980424  0.526630201495989  1.0000
  H   H18       1.0  0.7624740928782069  0.33583514519732777  0.19329720551984644  1.0000
  H   H19       1.0  0.1359820554537451  0.6099968287702421  0.9753285528127114  1.0000
  H   H20       1.0  0.38999721832074935  0.5259826033028197  0.3086648267466094  1.0000
  H   H21       1.0  0.474015147720521  0.8640190820128217  0.6419950293724728  1.0000
  H   H22       1.0  0.6099995898227761  0.13598438147681982  0.02467029077960655  1.0000
  H   H23       1.0  0.5259824797550506  0.3899994173166534  0.6913356449392819  1.0000
  H   H24       1.0  0.8640159635532131  0.47401708942140997  0.35800253100062407  1.0000
  H   H25       1.0  0.13423444028575338  0.8937610292562768  0.932467236275668  1.0000
  H   H26       1.0  0.1062381503780975  0.24047316508081573  0.2658026395136874  1.0000
  H   H27       1.0  0.7595270026952742  0.8657641500919504  0.5991340358489334  1.0000
  H   H28       1.0  0.8937632227887551  0.13423767890987123  0.06753167851173816  1.0000
  H   H29       1.0  0.2404733440845713  0.10623719110318136  0.7341979624241919  1.0000
  H   H30       1.0  0.8657637466039965  0.759526589941659  0.40086487490851874  1.0000
