data_image0
_chemical_formula_structural       C24H20C24H20
_chemical_formula_sum              "C48 H40"
_cell_length_a       8.557865747189851
_cell_length_b       14.729568223934889
_cell_length_c       7.032404597109592
_cell_angle_alpha    90.42487203987723
_cell_angle_beta     90.76239667629905
_cell_angle_gamma    90.03900150670638

_space_group_name_H-M_alt    "P 1"
_space_group_IT_number       1

loop_
  _space_group_symop_operation_xyz
  'x, y, z'

loop_
  _atom_site_type_symbol
  _atom_site_label
  _atom_site_symmetry_multiplicity
  _atom_site_fract_x
  _atom_site_fract_y
  _atom_site_fract_z
  _atom_site_occupancy
  C   C1        1.0  0.46983798647028363  0.42106870170894434  0.9868606712784325  1.0000
  C   C2        1.0  0.5267297017502178  0.4231270879254023  0.4901886702066646  1.0000
  C   C3        1.0  0.46961370901164934  0.5800643072488424  0.9910292780455306  1.0000
  C   C4        1.0  0.5305485419488508  0.5821161344504249  0.4946682051604664  1.0000
  C   C5        1.0  0.3952055039456724  0.33804568073723756  0.9829853117045584  1.0000
  C   C6        1.0  0.5994853176883856  0.3395910773551368  0.49028824679641414  1.0000
  C   C7        1.0  0.3947062956598123  0.662954281606771  0.9921503118117937  1.0000
  C   C8        1.0  0.6072775160469827  0.664510683698581  0.49975769921092755  1.0000
  C   C9        1.0  0.22943170848305386  0.3357872228085916  0.9775809499723321  1.0000
  C   C10       1.0  0.7651471806535729  0.3362596362852232  0.4969950302481561  1.0000
  C   C11       1.0  0.22894649428065128  0.6648539354202355  0.9873971687013973  1.0000
  C   C12       1.0  0.7730515228134769  0.6652984620845532  0.5065740959528701  1.0000
  C   C13       1.0  0.13968152753919508  0.4139664706044805  0.9757126448454884  1.0000
  C   C14       1.0  0.8567254204672106  0.41379381268857246  0.5035447394767069  1.0000
  C   C15       1.0  0.139466048772493  0.5865116450988019  0.9807872026506409  1.0000
  C   C16       1.0  0.8607594557047472  0.5863443065699004  0.5085941483138277  1.0000
  C   C17       1.0  0.21302722568008442  0.5003084511514027  0.9802233065257232  1.0000
  C   C18       1.0  0.7853023090100147  0.5006192211153498  0.5030864025057215  1.0000
  C   C19       1.0  0.37809883617187395  0.5004781462702698  0.9855978520780445  1.0000
  C   C20       1.0  0.6202642402465302  0.5019006808767646  0.49622197491236664  1.0000
  C   C21       1.0  0.6393685265118294  0.4479186302588703  0.9936475009049538  1.0000
  C   C22       1.0  0.35779452837096665  0.45115235441342333  0.4849881238305529  1.0000
  C   C23       1.0  0.6392313995185253  0.5534971609402655  0.9954039750344954  1.0000
  C   C24       1.0  0.3603528726818974  0.5567221179608438  0.48715105069399434  1.0000
  H   H1        1.0  0.4612919191095284  0.2743358651332316  0.9843896766609961  1.0000
  H   H2        1.0  0.5320601103543814  0.27631115273228196  0.48578246512224116  1.0000
  H   H3        1.0  0.46051131623920916  0.7268115968543968  0.9972341062484593  1.0000
  H   H4        1.0  0.542860792748828  0.7287916901299769  0.4992081695328155  1.0000
  H   H5        1.0  0.1707285031500204  0.2696571876611288  0.9745742175673294  1.0000
  H   H6        1.0  0.8223642371439188  0.269744871092703  0.49655185023495874  1.0000
  H   H7        1.0  0.17006733008290698  0.7308610181103902  0.9888988830344229  1.0000
  H   H8        1.0  0.8334560332445801  0.7308969882313702  0.509778502511163  1.0000
  H   H9        1.0  0.011977179422449469  0.4096296255345202  0.9715345717203341  1.0000
  H   H10       1.0  0.9842929338189925  0.40856373753560704  0.5089867728783394  1.0000
  H   H11       1.0  0.011752516873318353  0.590605840347028  0.9769601509682432  1.0000
  H   H12       1.0  0.9885368566622513  0.5895998319500628  0.5143120881807268  1.0000
  H   H13       1.0  0.7016092267599616  0.42051433796287263  0.8691371059813571  1.0000
  H   H14       1.0  0.2978988633597456  0.4241763313623742  0.35639602724992697  1.0000
  H   H15       1.0  0.700384654942375  0.5810343908166983  0.8709797545273515  1.0000
  H   H16       1.0  0.30270574644943776  0.584813279990544  0.3590052493108348  1.0000
  H   H17       1.0  0.6979956890237643  0.4206838094097344  0.12202348548964326  1.0000
  H   H18       1.0  0.2956279537617481  0.4242659550473032  0.609318259554102  1.0000
  H   H19       1.0  0.6988158579272855  0.5808549961858945  0.12390771059506185  1.0000
  H   H20       1.0  0.29855511017401554  0.5843447702730578  0.6118537205353209  1.0000
  C   C25       1.0  0.2939016962565718  0.07909690354202756  0.66506891777733  1.0000
  C   C26       1.0  0.7085961298219138  0.08041612927208522  0.16750650603199577  1.0000
  C   C27       1.0  0.29425398309322015  0.9200772756341938  0.6718666746832254  1.0000
  C   C28       1.0  0.7061765369028659  0.9214615717794302  0.17648076741982333  1.0000
  C   C29       1.0  0.2552669594579056  0.16094471080865522  0.5826126355467164  1.0000
  C   C30       1.0  0.7485507929475719  0.1618857680122124  0.08551443278783566  1.0000
  C   C31       1.0  0.25724744051662346  0.8360622215343742  0.5956597296324257  1.0000
  C   C32       1.0  0.7418862805247105  0.8370731362796163  0.10255970113403524  1.0000
  C   C33       1.0  0.1696169175337723  0.16051487250381544  0.40848882801831177  1.0000
  C   C34       1.0  0.8348596946567152  0.16063757267978154  0.9146698011815891  1.0000
  C   C35       1.0  0.17231846286146885  0.8316560203240847  0.4211446594611943  1.0000
  C   C36       1.0  0.8270179579156928  0.8318017647110746  0.9311117162548614  1.0000
  C   C37       1.0  0.12347327884138361  0.08097257380490853  0.3176044921683424  1.0000
  C   C38       1.0  0.8803979750235875  0.08068144952422449  0.826559234251591  1.0000
  C   C39       1.0  0.12486878560363104  0.9085921418062616  0.32430349530172087  1.0000
  C   C40       1.0  0.8762895674791565  0.9082524342839902  0.8351709568470385  1.0000
  C   C41       1.0  0.16206561930490387  0.995856871324036  0.3984019791545059  1.0000
  C   C42       1.0  0.840269234815874  0.9959001277048414  0.9068958820947618  1.0000
  C   C43       1.0  0.2469218877260475  0.9982617416768841  0.5721861075172768  1.0000
  C   C44       1.0  0.7548381720696291  0.999140374445272  0.0774640282808187  1.0000
  C   C45       1.0  0.38177410488002267  0.054831670782890085  0.8442062930960472  1.0000
  C   C46       1.0  0.6189753903250111  0.057037728898875165  0.3430436084628421  1.0000
  C   C47       1.0  0.38049637162447697  0.949216453954558  0.8498397902332521  1.0000
  C   C48       1.0  0.6207338806180716  0.9514756961065927  0.35152159885487894  1.0000
  H   H21       1.0  0.2883894671376938  0.22570502071414283  0.6495609363581825  1.0000
  H   H22       1.0  0.7160051729048911  0.22695617261217482  0.15034322520453713  1.0000
  H   H23       1.0  0.29102960030540914  0.7731909063411276  0.6677686773947299  1.0000
  H   H24       1.0  0.7068395750730838  0.774577266250785  0.17416471878477482  1.0000
  H   H25       1.0  0.1391901000531919  0.225655643859668  0.34369117946423716  1.0000
  H   H26       1.0  0.8662977730623243  0.2254990752645867  0.8502777616758039  1.0000
  H   H27       1.0  0.1436400624374635  0.7647929436297782  0.3609889869687473  1.0000
  H   H28       1.0  0.854514275351433  0.7646197660364388  0.8728184828726028  1.0000
  H   H29       1.0  0.05558783733621718  0.08351655665192492  0.18456782949090628  1.0000
  H   H30       1.0  0.9488525838046974  0.08257536506778414  0.6960506401859111  1.0000
  H   H31       1.0  0.05726072233999466  0.9024658030506595  0.19141950959901521  1.0000
  H   H32       1.0  0.9443274633379168  0.9014955901909826  0.7048931595928924  1.0000
  H   H33       1.0  0.32612179167807853  0.08436410368679181  0.9712812437513634  1.0000
  H   H34       1.0  0.6726285429743075  0.08751699146270055  0.4721716230023222  1.0000
  H   H35       1.0  0.3219717703346145  0.9242901436666796  0.9785200599619688  1.0000
  H   H36       1.0  0.6807685305604949  0.9276407618195531  0.4819952288004628  1.0000
  H   H37       1.0  0.502391791124859  0.08163486386168224  0.8437331259474968  1.0000
  H   H38       1.0  0.49826739950367416  0.08351149155346912  0.33542819800809165  1.0000
  H   H39       1.0  0.5003752401016114  0.9214702143485732  0.8553770444108713  1.0000
  H   H40       1.0  0.5011759709199486  0.9232945402387772  0.3556024823483138  1.0000
