# CIF file generated from CASTEP cell file
# https://gist.github.com/blake-armstrong/93facdde07a6e0a1ddb51857dd48e3f1
# Structure converted from CASTEP

data_structure

_cell_length_a    8.224309487492436
_cell_length_b    13.882391841371929
_cell_length_c    7.059151773253378
_cell_angle_alpha 89.992176240453134
_cell_angle_beta  90.000634818199217
_cell_angle_gamma 89.971025796270823

_symmetry_space_group_name_H-M 'P 1'
_symmetry_Int_Tables_number 1

loop_
_atom_site_label
_atom_site_type_symbol
_atom_site_fract_x
_atom_site_fract_y
_atom_site_fract_z
H1       H     0.454836855940261    0.259643042747708    0.996747000812940
H2       H     0.153140581182915    0.255507251553023    0.994496491004073
H3       H     0.988517663320239    0.403430149158467    0.997213606841667
H4       H     0.704831580557299    0.414128835969603    0.872211064736618
H5       H     0.705572394249563    0.414422786650362    0.122655778063207
H6       H     0.281036969380467    0.239704375512851    0.656585100357742
H7       H     0.139589469202797    0.244076054009970    0.346465934681425
H8       H     0.060304210315229    0.096195584397610    0.178244514615200
H9       H     0.311722997052582    0.085209709384440    0.972949440780565
H10      H     0.497790882268473    0.085057431719142    0.850288593905119
H11      H     0.544148402192714    0.739566391099025    0.496734289928258
H12      H     0.845828571554119    0.743674606950158    0.494423982730159
H13      H     0.010422871832739    0.595735139738236    0.497076798068059
H14      H     0.294029648732525    0.585139351392562    0.372335145399103
H15      H     0.293469370915753    0.584777664177439    0.622777723141437
H16      H     0.717621354359280    0.759481676891981    0.156721664147546
H17      H     0.859074236385619    0.755145399745465    0.846602560198799
H18      H     0.938229703270586    0.903048804032277    0.678293622024670
H19      H     0.686813983745784    0.913946527821402    0.472956306834282
H20      H     0.500719012604875    0.914091585441394    0.350340085783680
H21      H     0.543134365280638    0.259560072409449    0.497033950997984
H22      H     0.844827343419116    0.254840643158065    0.495117742840586
H23      H     0.010015024015884    0.402428177557540    0.497526260810597
H24      H     0.293770389784454    0.414544625420353    0.372219833962470
H25      H     0.292994680764710    0.414830324632546    0.622664199766174
H26      H     0.716340819855503    0.239302641736799    0.157615950726541
H27      H     0.857810415990975    0.244152926167208    0.847500605038859
H28      H     0.937812014729982    0.096532787249890    0.678702977996850
H29      H     0.686984704453464    0.084291788924452    0.473284995386164
H30      H     0.500620956742627    0.084393766385148    0.351227747692204
H31      H     0.455725549382575    0.739648016083068    0.997080833911894
H32      H     0.154044155343355    0.744351750052983    0.995266795438887
H33      H     0.988875189161005    0.596743787433993    0.997741318314242
H34      H     0.705094547673573    0.584716609707980    0.872204708228355
H35      H     0.705949853570382    0.584363968645947    0.122649361714281
H36      H     0.282243364275052    0.759880634268202    0.657578073376184
H37      H     0.140783498254030    0.755070827552550    0.347451367194818
H38      H     0.060704223675599    0.902705295405231    0.178688639791398
H39      H     0.311462160736148    0.914873722369899    0.973313365328893
H40      H     0.497835551275751    0.914750990587873    0.851271685944172
C1       C     0.465003909623192    0.415144155304708    0.998021146684867
C2       C     0.387138715603490    0.327056187541198    0.997344160362245
C3       C     0.214273059906130    0.325106387319630    0.996858221627577
C4       C     0.120663192045938    0.408182755559759    0.997633099753231
C5       C     0.197372692511333    0.499888077317436    0.998449996187097
C6       C     0.369661569559095    0.499725462720586    0.998470815166469
C7       C     0.642686925240745    0.443180550025519    0.997528878123422
C8       C     0.287018794339840    0.084267743245069    0.666556098412681
C9       C     0.249780390826217    0.172367945557466    0.586700560460005
C10      C     0.167856397718817    0.174424361552761    0.409494382261713
C11      C     0.123725402559753    0.091352242775829    0.313326569046323
C12      C     0.159936335545790   -0.000396656281765    0.392285927558171
C13      C     0.241479048538819    0.999727267751634    0.569039202160759
C14      C     0.373541358466567    0.056218858811403    0.847301555014370
C15      C     0.533936837868312    0.584062713411360    0.497958729203246
C16      C     0.611820016201237    0.672143403780642    0.497290035820238
C17      C     0.784685315606989    0.674079881418630    0.496773379057760
C18      C     0.878277256965275    0.590996324186555    0.497503606077722
C19      C     0.801545523590429    0.499299401900759    0.498300698619472
C20      C     0.629259061081248    0.499474113461964    0.498356138642463
C21      C     0.356250429070370    0.556042674587049    0.497578001445478
C22      C     0.711478069626277    0.914915165248134    0.166571702014135
C23      C     0.748807706148721    0.826824580439199    0.086783677031050
C24      C     0.830743194520920    0.824789420275362    0.909586890580752
C25      C     0.874807371149372    0.907874017091249    0.813371688841349
C26      C     0.838548102980048    0.999613832429440    0.892290117686804
C27      C     0.756980193223428   -0.000532790867187    0.069023782254876
C28      C     0.624961027908491    0.942942011245464    0.347316823122469
C29      C     0.533580407325216    0.415082067235529    0.498073013905999
C30      C     0.611096371528971    0.326840916895952    0.497578518705641
C31      C     0.783954066405959    0.324554321598624    0.497222387514312
C32      C     0.877889152428794    0.407443128358728    0.497814166049651
C33      C     0.356010175081843    0.443469507178237    0.497556530633959
C34      C     0.711076912269900    0.083855168353014    0.166903007103494
C35      C     0.747911158243026    0.172080613957132    0.087429252427714
C36      C     0.829858574194000    0.174410482345168    0.910256203807695
C37      C     0.874373894076996    0.091485408960618    0.813741242310187
C38      C     0.624880060303646    0.055526335888933    0.347652589189216
C39      C     0.465319511837390    0.584127012030960    0.998150023380777
C40      C     0.387779166802476    0.672361203367335    0.997662957882153
C41      C     0.214920514589471    0.674637104758599    0.997360527021588
C42      C     0.121003428977087    0.591739303516430    0.997984743420677
C43      C     0.642898759576560    0.555754224423675    0.997552711192448
C44      C     0.287395614950929    0.915327674535828    0.666920704948836
C45      C     0.250627780816652    0.827110775871495    0.587412396779517
C46      C     0.168693087092239    0.824805231674326    0.410229174496606
C47      C     0.124134554524090    0.907740738178963    0.313732543303382
C48      C     0.373586883099320    0.943634688918312    0.847674564193500
