data_C14H10
_audit_creation_method 'chmpy python library version 1.0a1'
_cell_length_a 8.14339
_cell_length_b 13.7244
_cell_length_c 6.836917
_cell_angle_alpha 90.0
_cell_angle_beta 90.0
_cell_angle_gamma 90.0
loop_
_symmetry_equiv_pos_site_id
_symmetry_equiv_pos_as_xyz
                   1 -x,+y,+z
                   2 +x,+y,+z
                   3 -x,-y,1/2+z
                   4 +x,-y,1/2+z
loop_
_atom_site_label
_atom_site_type_symbol
_atom_site_fract_x
_atom_site_fract_y
_atom_site_fract_z
_atom_site_occupancy
C1 C       0.462032000000       0.412544000000       1.000000000000       1.000000000000
C2 C       0.381804000000       0.323365000000       0.998906000000       1.000000000000
C3 C       0.205600000000       0.320975000000       0.997001000000       1.000000000000
C4 C       0.111806000000       0.405836000000       0.997938000000       1.000000000000
C5 C       0.189757000000       0.500000000000       0.999334000000       1.000000000000
C6 C       0.364782000000       0.500000000000       1.000157000000       1.000000000000
C7 C       0.643110000000       0.442351000000       0.999127000000       1.000000000000
H1 H       0.453403000000       0.256097000000       0.998870000000       1.000000000000
H2 H       0.143818000000       0.250224000000       0.992809000000       1.000000000000
H3 H      -0.022105000000       0.402412000000       0.997189000000       1.000000000000
H4 H       0.705646000000       0.411617000000       0.868459000000       1.000000000000
H5 H       0.706633000000       0.412146000000       1.129556000000       1.000000000000
C8 C       0.289904000000       1.087453000000       0.670191000000       1.000000000000
C9 C       0.250510000000       1.176557000000       0.586600000000       1.000000000000
C10 C       0.163139000000       1.179027000000       0.404521000000       1.000000000000
C11 C       0.116074000000       1.094112000000       0.308127000000       1.000000000000
C12 C       0.154238000000       1.000000000000       0.389147000000       1.000000000000
C13 C       0.240852000000       1.000000000000       0.570231000000       1.000000000000
C14 C       0.382780000000       1.057683000000       0.855310000000       1.000000000000
H6 H       0.285753000000       1.243814000000       0.660576000000       1.000000000000
H7 H       0.132983000000       1.249848000000       0.340640000000       1.000000000000
H8 H       0.048864000000       1.097276000000       0.170075000000       1.000000000000
H9 H       0.322039000000       1.088275000000       0.987347000000       1.000000000000
H10 H       0.509209000000       1.088181000000       0.851464000000       1.000000000000
#END