data_cif

_audit_creation_method             'generated by GULP'

_symmetry_space_group_name_H-M     'P C M 21        '
_symmetry_Int_Tables_number        26
_symmetry_cell_setting             Orthorhombic

_cell_length_a                       8.225989
_cell_length_b                      13.605008
_cell_length_c                       7.098308
_cell_angle_alpha                   90.000000
_cell_angle_beta                    90.000000
_cell_angle_gamma                   90.000000

loop_
_atom_site_label
_atom_site_fract_x
_atom_site_fract_y
_atom_site_fract_z
_atom_site_occupancy
  C3          0.44786      0.41632      0.00000  1.0000
  C3          0.37212      0.32410      0.99957  1.0000
  C3          0.20016      0.32067      0.99791  1.0000
  C3          0.10675      0.40830      0.99831  1.0000
  C3          0.18603      0.50000      0.99917  1.0000
  C3          0.35466      0.50000      0.99988  1.0000
  C1          0.62763      0.44235      0.99951  1.0000
  H4          0.44367      0.25709      0.99925  1.0000
  H4          0.13938      0.24981      0.99616  1.0000
  H4          0.97501      0.40483      0.99757  1.0000
  H2          0.68886      0.41340      0.87413  1.0000
  H2          0.68921      0.41411      0.12515  1.0000
  C3          0.28752      0.08367      0.66253  1.0000
  C3          0.25217      0.17582      0.58460  1.0000
  C3          0.16942      0.17927      0.41006  1.0000
  C3          0.12326      0.09160      0.31614  1.0000
  C3          0.16047      0.00000      0.39739  1.0000
  C3          0.24138      0.00000      0.56879  1.0000
  C1          0.37758      0.05771      0.84284  1.0000
  H4          0.28874      0.24280      0.65562  1.0000
  H4          0.14137      0.25003      0.34737  1.0000
  H4          0.06052      0.09480      0.18174  1.0000
  H2          0.31541      0.08652      0.96781  1.0000
  H2          0.50204      0.08640      0.83982  1.0000
