data_ACENAP03.b3lyp.6-311G**.dma4.-74.5109.1.2049
_audit_creation_method 'generated by cspy2.0'
_cell_length_a 8.3125
_cell_length_b 13.8061
_cell_length_c 7.4074
_cell_angle_alpha 90.0
_cell_angle_beta 90.0
_cell_angle_gamma 90.0
loop_
_symmetry_equiv_pos_site_id
_symmetry_equiv_pos_as_xyz
1 +x,+y,+z
loop_
_atom_site_label
_atom_site_type_symbol
_atom_site_fract_x
_atom_site_fract_y
_atom_site_fract_z
_atom_site_occupancy
C1 C       0.460105720000       0.415226070000       0.000116890000       1.000000000000
C2 C       0.460105720000       0.584773930000       0.000116890000       1.000000000000
C3 C       0.382615620000       0.327105800000      -0.000168780000       1.000000000000
C4 C       0.382615620000       0.672894200000      -0.000168780000       1.000000000000
C5 C       0.212377350000       0.324672090000      -0.001440710000       1.000000000000
C6 C       0.212377350000       0.675327910000      -0.001440710000       1.000000000000
C7 C       0.120226120000       0.407823560000      -0.000865690000       1.000000000000
C8 C       0.120226120000       0.592176440000      -0.000865690000       1.000000000000
C9 C       0.196717470000       0.500000000000       0.000979430000       1.000000000000
C10 C       0.363766170000       0.500000000000       0.000296880000       1.000000000000
C11 C       0.634633740000       0.442909420000      -0.000069240000       1.000000000000
C12 C       0.634633740000       0.557090580000      -0.000069240000       1.000000000000
C13 C       0.287940120000       0.084773930000       0.658419700000       1.000000000000
C14 C       0.287940120000      -0.084773930000       0.658419700000       1.000000000000
C15 C       0.254002100000       0.172894200000       0.581680150000       1.000000000000
C16 C       0.254002100000      -0.172894200000       0.581680150000       1.000000000000
C17 C       0.181370020000       0.175125100000       0.408803310000       1.000000000000
C18 C       0.181370020000      -0.175125100000       0.408803310000       1.000000000000
C19 C       0.140578770000       0.091872220000       0.314993610000       1.000000000000
C20 C       0.140578770000      -0.091872220000       0.314993610000       1.000000000000
C21 C       0.174304980000       0.000000000000       0.392014640000       1.000000000000
C22 C       0.246261820000       0.000000000000       0.562022940000       1.000000000000
C23 C       0.363326750000       0.056177940000       0.834570770000       1.000000000000
C24 C       0.363326750000      -0.056177940000       0.834570770000       1.000000000000
C25 C       0.551149550000       0.584773930000       0.500116890000       1.000000000000
C26 C       0.551149550000       0.415226070000       0.500116890000       1.000000000000
C27 C       0.628639660000       0.672894200000       0.499831220000       1.000000000000
C28 C       0.628639660000       0.327105800000       0.499831220000       1.000000000000
C29 C       0.798877920000       0.675327910000       0.498559290000       1.000000000000
C30 C       0.798877920000       0.324672090000       0.498559290000       1.000000000000
C31 C       0.891029160000       0.592176440000       0.499134310000       1.000000000000
C32 C       0.891029160000       0.407823560000       0.499134310000       1.000000000000
C33 C       0.814537810000       0.500000000000       0.500979430000       1.000000000000
C34 C       0.647489100000       0.500000000000       0.500296880000       1.000000000000
C35 C       0.376621530000       0.557090580000       0.499930760000       1.000000000000
C36 C       0.376621530000       0.442909420000       0.499930760000       1.000000000000
C37 C       0.723315160000       0.915226070000       0.158419700000       1.000000000000
C38 C       0.723315160000       1.084773930000       0.158419700000       1.000000000000
C39 C       0.757253170000       0.827105800000       0.081680140000       1.000000000000
C40 C       0.757253170000       1.172894200000       0.081680140000       1.000000000000
C41 C       0.829885260000       0.824874900000      -0.091196690000       1.000000000000
C42 C       0.829885260000       1.175125100000      -0.091196690000       1.000000000000
C43 C       0.870676500000       0.908127780000      -0.185006390000       1.000000000000
C44 C       0.870676500000       1.091872220000      -0.185006390000       1.000000000000
C45 C       0.836950290000       1.000000000000      -0.107985360000       1.000000000000
C46 C       0.764993450000       1.000000000000       0.062022940000       1.000000000000
C47 C       0.647928510000       0.943822060000       0.334570770000       1.000000000000
C48 C       0.647928510000       1.056177940000       0.334570770000       1.000000000000
H1 H       0.448439830000       0.740530820000      -0.002627820000       1.000000000000
H2 H       0.448439830000       0.259469180000      -0.002627820000       1.000000000000
H3 H       0.153939870000       0.744992610000      -0.006190870000       1.000000000000
H4 H       0.153939870000       0.255007390000      -0.006190870000       1.000000000000
H5 H      -0.013111750000       0.596739630000      -0.002387090000       1.000000000000
H6 H      -0.013111750000       0.403260370000      -0.002387090000       1.000000000000
H7 H       0.696178020000       0.414617640000      -0.119091420000       1.000000000000
H8 H       0.696178020000       0.585382360000      -0.119091420000       1.000000000000
H9 H       0.696554840000       0.415935900000       0.119584990000       1.000000000000
H10 H       0.696554840000       0.584064100000       0.119584990000       1.000000000000
H11 H       0.281519870000      -0.240530820000       0.647525120000       1.000000000000
H12 H       0.281519870000       0.240530820000       0.647525120000       1.000000000000
H13 H       0.157340760000      -0.244586990000       0.347737180000       1.000000000000
H14 H       0.157340760000       0.244586990000       0.347737180000       1.000000000000
H15 H       0.083995560000      -0.096739630000       0.182145580000       1.000000000000
H16 H       0.083995560000       0.096739630000       0.182145580000       1.000000000000
H17 H       0.300247670000       0.086497810000       0.945305090000       1.000000000000
H18 H       0.300247670000      -0.086497810000       0.945305090000       1.000000000000
H19 H       0.484749730000       0.084266910000       0.845940620000       1.000000000000
H20 H       0.484749730000      -0.084266910000       0.845940620000       1.000000000000
H21 H       0.562815440000       0.259469180000       0.497372180000       1.000000000000
H22 H       0.562815440000       0.740530820000       0.497372180000       1.000000000000
H23 H       0.857315410000       0.255007390000       0.493809130000       1.000000000000
H24 H       0.857315410000       0.744992610000       0.493809130000       1.000000000000
H25 H       1.024367020000       0.403260370000       0.497612910000       1.000000000000
H26 H       1.024367020000       0.596739630000       0.497612910000       1.000000000000
H27 H       0.315077250000       0.585382360000       0.380908580000       1.000000000000
H28 H       0.315077250000       0.414617640000       0.380908580000       1.000000000000
H29 H       0.314700440000       0.584064100000       0.619584990000       1.000000000000
H30 H       0.314700440000       0.415935900000       0.619584990000       1.000000000000
H31 H       0.729735400000       1.240530820000       0.147525110000       1.000000000000
H32 H       0.729735400000       0.759469180000       0.147525110000       1.000000000000
H33 H       0.853914520000       1.244586990000      -0.152262820000       1.000000000000
H34 H       0.853914520000       0.755413010000      -0.152262820000       1.000000000000
H35 H       0.927259720000       1.096739630000      -0.317854420000       1.000000000000
H36 H       0.927259720000       0.903260370000      -0.317854420000       1.000000000000
H37 H       0.711007600000       0.913502190000       0.445305090000       1.000000000000
H38 H       0.711007600000       1.086497810000       0.445305090000       1.000000000000
H39 H       0.526505540000       0.915733090000       0.345940610000       1.000000000000
H40 H       0.526505540000       1.084266910000       0.345940610000       1.000000000000
#END