data_image0
_chemical_formula_structural       C24H20C24H20
_chemical_formula_sum              "C48 H40"
_cell_length_a       8.29
_cell_length_b       14.0
_cell_length_c       7.225
_cell_angle_alpha    90.0
_cell_angle_beta     90.0
_cell_angle_gamma    90.0

_space_group_name_H-M_alt    "P 1"
_space_group_IT_number       1

loop_
  _space_group_symop_operation_xyz
  'x, y, z'

loop_
  _atom_site_type_symbol
  _atom_site_label
  _atom_site_symmetry_multiplicity
  _atom_site_fract_x
  _atom_site_fract_y
  _atom_site_fract_z
  _atom_site_occupancy
  C   C1        1.0  0.4594516895686833  0.41617116716136193  0.998638772841398  1.0000
  C   C2        1.0  0.5406275902692987  0.41605284722878166  0.4986106312787742  1.0000
  C   C3        1.0  0.4593720710755631  0.5839477493229634  0.9986103201535396  1.0000
  C   C4        1.0  0.5405488326288607  0.5838286802519426  0.4986383642819016  1.0000
  C   C5        1.0  0.3822668922106667  0.32867243473091895  0.9983341406424555  1.0000
  C   C6        1.0  0.6178927243515417  0.3285789973147725  0.4982903697644891  1.0000
  C   C7        1.0  0.3821071190124885  0.6714207700143605  0.9982885365209198  1.0000
  C   C8        1.0  0.617733041022706  0.6713282864834338  0.4983323520605911  1.0000
  C   C9        1.0  0.21063637990444387  0.326556313924335  0.9981127391034854  1.0000
  C   C10       1.0  0.789522011078439  0.3265172001612875  0.49788102254977223  1.0000
  C   C11       1.0  0.21047811947752681  0.6734828564957702  0.9978745027133633  1.0000
  C   C12       1.0  0.7893642712330812  0.6734430170368023  0.49810622909905233  1.0000
  C   C13       1.0  0.11749780207299733  0.408875423528007  0.9986429487257207  1.0000
  C   C14       1.0  0.8825858340251452  0.4088662664575882  0.4984836712595833  1.0000
  C   C15       1.0  0.11741350058148213  0.591133022716742  0.9984787970200771  1.0000
  C   C16       1.0  0.8825022458757499  0.5911245824029034  0.49863822468684427  1.0000
  C   C17       1.0  0.19333541123358836  0.5000167704833274  0.9989908603183681  1.0000
  C   C18       1.0  0.8066646657466965  0.4999830020071728  0.4989908275855594  1.0000
  C   C19       1.0  0.3645056116587589  0.5000445407159418  0.9988865234555189  1.0000
  C   C20       1.0  0.6354938448232244  0.49995548926313355  0.4988865751203252  1.0000
  C   C21       1.0  0.6358645396113456  0.444237875086597  0.9978864493529218  1.0000
  C   C22       1.0  0.3641885407882032  0.44405890483145194  0.4985603587306714  1.0000
  C   C23       1.0  0.6358113513562025  0.5559412207433301  0.9985580099147361  1.0000
  C   C24       1.0  0.3641355247551078  0.555762350620608  0.4978840162559847  1.0000
  H   H1        1.0  0.44970471455921746  0.2617778506186683  0.9980671088608498  1.0000
  H   H2        1.0  0.5505179617411565  0.2616607634090251  0.4981501193980289  1.0000
  H   H3        1.0  0.4494819998290651  0.7383395096630603  0.9981499688041323  1.0000
  H   H4        1.0  0.5502955892380553  0.7382221090255008  0.49806688942171307  1.0000
  H   H5        1.0  0.15005217706856547  0.2573494068551689  0.9962865478662667  1.0000
  H   H6        1.0  0.8501614287417986  0.2573257197986693  0.4960542892896977  1.0000
  H   H7        1.0  0.14983845965731837  0.7426737457352953  0.9960548162032661  1.0000
  H   H8        1.0  0.8499479524589081  0.7426501661696643  0.4962869611715395  1.0000
  H   H9        1.0  0.9861845792400914  0.4039647543454896  0.9985992524452629  1.0000
  H   H10       1.0  0.01390342320990019  0.40399583659361477  0.49830884031326633  1.0000
  H   H11       1.0  0.9860963812444362  0.5960038068418945  0.9983116558016725  1.0000
  H   H12       1.0  0.013815766341537417  0.5960348206512954  0.498602147581637  1.0000
  H   H13       1.0  0.6974271674512659  0.41562381651709923  0.8748877141721749  1.0000
  H   H14       1.0  0.30201811619866314  0.4149500152453219  0.37642122805180295  1.0000
  H   H15       1.0  0.697982290369783  0.5850445733736896  0.87641406203357  1.0000
  H   H16       1.0  0.3025725134347724  0.5843707152013718  0.37488078201045  1.0000
  H   H17       1.0  0.6986095989475098  0.4154737444333981  0.1199727303333938  1.0000
  H   H18       1.0  0.30209763677895357  0.4157503483180351  0.6215024549423359  1.0000
  H   H19       1.0  0.6979023055519513  0.5842558716271891  0.1214953726652376  1.0000
  H   H20       1.0  0.301390333198796  0.5845324890334543  0.6199655558705576  1.0000
  C   C25       1.0  0.2878190858202442  0.08387586546002058  0.6640935976599306  1.0000
  C   C26       1.0  0.712348434374007  0.08385300151758195  0.1641679618098656  1.0000
  C   C27       1.0  0.2876514086074412  0.9161468425834808  0.6641678127481685  1.0000
  C   C28       1.0  0.7121809735464774  0.9161240177329663  0.1640936569350676  1.0000
  C   C29       1.0  0.25175818541469763  0.17136223386024485  0.5856895543821542  1.0000
  C   C30       1.0  0.7486384807302832  0.17132560182028142  0.08583934936240181  1.0000
  C   C31       1.0  0.25136114868633636  0.8286745056389658  0.585839478021564  1.0000
  C   C32       1.0  0.7482422594889193  0.8286378454276339  0.0856894232570772  1.0000
  C   C33       1.0  0.17216408893605112  0.17352354062639108  0.41131175658716473  1.0000
  C   C34       1.0  0.8283800280695327  0.17346893331766466  0.9115454957171013  1.0000
  C   C35       1.0  0.1716198310086723  0.8265314051866491  0.4115449677350863  1.0000
  C   C36       1.0  0.8278358473714535  0.826476349764315  0.9113116669317418  1.0000
  C   C37       1.0  0.12869867836394758  0.09117354146535966  0.3167595280488209  1.0000
  C   C38       1.0  0.8715733583784052  0.09110720611990557  0.8168686736456372  1.0000
  C   C39       1.0  0.12842717228470973  0.9088925935962564  0.31686866897981136  1.0000
  C   C40       1.0  0.8713011912420493  0.908826520235479  0.8167588514516413  1.0000
  C   C41       1.0  0.16390051573017428  2.8245906736604604e-05  0.39396286880881776  1.0000
  C   C42       1.0  0.8360993552818917  0.9999716930703865  0.8939631863024035  1.0000
  C   C43       1.0  0.24361137497160104  1.8813531106331993e-05  0.5677203103154599  1.0000
  C   C44       1.0  0.7563887800224647  0.9999812502632913  0.06772006640909833  1.0000
  C   C45       1.0  0.3703675856392331  0.0558608513423874  0.8428910470411696  1.0000
  C   C46       1.0  0.6289133856343425  0.05584910005937368  0.3424391160056449  1.0000
  C   C47       1.0  0.371086627049975  0.9441509206478202  0.8424391038756291  1.0000
  C   C48       1.0  0.6296324653537775  0.9441391044725465  0.3428912322754063  1.0000
  H   H21       1.0  0.28196414865675534  0.23820432136832617  0.6549045947779117  1.0000
  H   H22       1.0  0.7184285115970854  0.23817948972407982  0.15501587696903002  1.0000
  H   H23       1.0  0.2815711891836351  0.7618206526393805  0.6550160075620624  1.0000
  H   H24       1.0  0.7180361320153426  0.7617957675809389  0.15490474356985623  1.0000
  H   H25       1.0  0.14480771457896838  0.2427452333835079  0.34938646237387716  1.0000
  H   H26       1.0  0.8558914098669713  0.24268532078097618  0.8496908130958719  1.0000
  H   H27       1.0  0.14410885209936047  0.7573146640361141  0.3496903306754374  1.0000
  H   H28       1.0  0.8551920081419612  0.7572547341561917  0.849386014157921  1.0000
  H   H29       1.0  0.06619794718601417  0.09609572763272214  0.1841816539901239  1.0000
  H   H30       1.0  0.934110673232085  0.09600598741787539  0.6843142542418237  1.0000
  H   H31       1.0  0.06588840368263073  0.903994063664116  0.18431461877693014  1.0000
  H   H32       1.0  0.9338028886150966  0.9039043128689356  0.6841821792230978  1.0000
  H   H33       1.0  0.3058127104083435  0.08425234685145948  0.9641227552420809  1.0000
  H   H34       1.0  0.6918958756446885  0.08487595223900495  0.464167750135428  1.0000
  H   H35       1.0  0.30810350707755474  0.9151245701493022  0.9641676554744641  1.0000
  H   H36       1.0  0.6941877974149898  0.9157482269228111  0.4641225532852912  1.0000
  H   H37       1.0  0.49343401141477056  0.08496074136863924  0.8499861617731934  1.0000
  H   H38       1.0  0.5053335320372362  0.08431290557391213  0.34779828349700564  1.0000
  H   H39       1.0  0.49466631505399455  0.9156865243679477  0.8477992019026155  1.0000
  H   H40       1.0  0.5065660917950503  0.9150386797533755  0.34998708281311225  1.0000
