data_image0
_chemical_formula_structural       C24H32O28
_chemical_formula_sum              "C24 H32 O28"
_cell_length_a       12.817
_cell_length_b       5.628
_cell_length_c       11.464999999999998
_cell_angle_alpha    90.0
_cell_angle_beta     111.22
_cell_angle_gamma    90.0

_space_group_name_H-M_alt    "P 1"
_space_group_IT_number       1

loop_
  _space_group_symop_operation_xyz
  'x, y, z'

loop_
  _atom_site_type_symbol
  _atom_site_label
  _atom_site_symmetry_multiplicity
  _atom_site_fract_x
  _atom_site_fract_y
  _atom_site_fract_z
  _atom_site_occupancy
  C   C1        1.0  0.08758784980623774  0.4527786836529137  0.40058613126551273  1.0000
  C   C2        1.0  0.412412123467792  0.9527787284381345  0.5994138619340905  1.0000
  C   C3        1.0  0.9124046543250747  0.5470900261540458  0.5993017755490094  1.0000
  C   C4        1.0  0.5875953605472771  0.04708995460228118  0.4006981715247151  1.0000
  C   C5        1.0  0.15787843146732097  0.4335670738702141  0.32029273302581446  1.0000
  C   C6        1.0  0.34212154273299955  0.9335671033112267  0.6797072930979507  1.0000
  C   C7        1.0  0.8422442863090763  0.566172838867291  0.6797172498054708  1.0000
  C   C8        1.0  0.6577556985823112  0.06617296689272956  0.32028276641374914  1.0000
  C   C9        1.0  0.1591913342955823  0.1888144346210803  0.2593800251599599  1.0000
  C   C10       1.0  0.34080864845034536  0.6888144110418686  0.7406199960520179  1.0000
  C   C11       1.0  0.8409152900565393  0.8110752735778751  0.7405183205285542  1.0000
  C   C12       1.0  0.6590847086370197  0.31107531917199965  0.2594816512148832  1.0000
  C   C13       1.0  0.2424344865980497  0.20477781544926763  0.19044994529949946  1.0000
  C   C14       1.0  0.2575655056703023  0.704777745700716  0.8095500653493269  1.0000
  C   C15       1.0  0.7575497662462666  0.7955952477143998  0.8093193703316349  1.0000
  C   C16       1.0  0.7424502856608188  0.2955952884796841  0.19068062233354113  1.0000
  C   C17       1.0  0.26893947682352193  0.9631788208719654  0.15086062244143456  1.0000
  C   C18       1.0  0.23106048703074314  0.46317892294082846  0.8491393726373775  1.0000
  C   C19       1.0  0.7310242190215158  0.03719460019728974  0.8488546023160409  1.0000
  C   C20       1.0  0.7689758821398861  0.5371945403870242  0.15114543084143248  1.0000
  C   C21       1.0  0.04069807947747012  0.1275096633841884  0.1665071406826141  1.0000
  C   C22       1.0  0.4593018978259228  0.627509654729889  0.8334928535250254  1.0000
  C   C23       1.0  0.9593991478219095  0.872266383080024  0.833459493645126  1.0000
  C   C24       1.0  0.5406009111370409  0.37226634712373347  0.16654054155709536  1.0000
  H   H1        1.0  0.13273554662993642  0.5750449216070699  0.24959532719572122  1.0000
  H   H2        1.0  0.3672644663355586  0.07504495761260101  0.7504046670415723  1.0000
  H   H3        1.0  0.8676281248060389  0.42482222767554445  0.7504805219301488  1.0000
  H   H4        1.0  0.6323719293850156  0.9248222752819584  0.24951952729593216  1.0000
  H   H5        1.0  0.24424409309550188  0.47576369725596723  0.38178667272263367  1.0000
  H   H6        1.0  0.2557558765961989  0.9757636524271949  0.6182132911113464  1.0000
  H   H7        1.0  0.7558921816645934  0.5237450169150566  0.6183304962858948  1.0000
  H   H8        1.0  0.7441077900670575  0.023744969890075757  0.3816694813919818  1.0000
  H   H9        1.0  0.2085149176418188  0.3186445589178572  0.1074816345723763  1.0000
  H   H10       1.0  0.29148511924589915  0.818644492347467  0.8925184169114335  1.0000
  H   H11       1.0  0.7912613345123666  0.6816612792866862  0.8922846857319177  1.0000
  H   H12       1.0  0.7087386487198912  0.18166130392776544  0.10771527025496318  1.0000
  H   H13       1.0  0.3206633434228785  0.2853036009203012  0.2526322804171041  1.0000
  H   H14       1.0  0.179336676554066  0.7853034508811477  0.7473677691497083  1.0000
  H   H15       1.0  0.6793447851369167  0.7152422587542892  0.7469488637962566  1.0000
  H   H16       1.0  0.8206552105838564  0.2152424407209408  0.2530511223792704  1.0000
  H   H17       1.0  0.028208194560352576  0.6851376276376058  0.48877356628425217  1.0000
  H   H18       1.0  0.47179178470917005  0.1851376618027023  0.5112264070996282  1.0000
  H   H19       1.0  0.9718342427363353  0.3148554889269089  0.5111107621179152  1.0000
  H   H20       1.0  0.5281657516935482  0.8148555785009965  0.48888923737568923  1.0000
  H   H21       1.0  0.39858396376481164  0.7617405336947888  0.16991517989237737  1.0000
  H   H22       1.0  0.10141604135949459  0.2617405708801868  0.8300848129973636  1.0000
  H   H23       1.0  0.6013551831282762  0.23891498024592336  0.8293957210263126  1.0000
  H   H24       1.0  0.8986447939384037  0.7389151191158525  0.17060421120897232  1.0000
  H   H25       1.0  0.9299943845265898  0.21764323781497055  0.007467744013393535  1.0000
  H   H26       1.0  0.5700056358201155  0.7176432361921455  0.9925322588037363  1.0000
  H   H27       1.0  0.06980978134253818  0.7821522569755276  0.9926240824114189  1.0000
  H   H28       1.0  0.4301902042163313  0.2821522409892352  0.007375889824485223  1.0000
  H   H29       1.0  0.13656047143288355  0.94486802268353  0.3715973138280574  1.0000
  H   H30       1.0  0.3634395069802261  0.44486805601647855  0.6284026815291998  1.0000
  H   H31       1.0  0.8636774466543501  0.05435133844295523  0.6281107114110833  1.0000
  H   H32       1.0  0.6363225671458614  0.5543512658387996  0.37188924384653077  1.0000
  O   O1        1.0  0.0781477875944186  0.6730803661141388  0.4351705523386391  1.0000
  O   O2        1.0  0.42185217780274814  0.1730803473646382  0.5648294320857353  1.0000
  O   O3        1.0  0.9218655914893685  0.32683811055336703  0.5646723177861022  1.0000
  O   O4        1.0  0.5781344437994167  0.826838027613264  0.4353276957117442  1.0000
  O   O5        1.0  0.04399361824636088  0.27863048422392583  0.4320453147428143  1.0000
  O   O6        1.0  0.45600634788168276  0.7786304543665867  0.5679547269302866  1.0000
  O   O7        1.0  0.9559172750165251  0.7212876444544319  0.567738336255509  1.0000
  O   O8        1.0  0.5440827495883988  0.22128762952256056  0.4322616779498617  1.0000
  O   O9        1.0  0.3782327972910875  0.9239527204263477  0.1908246195941063  1.0000
  O   O10       1.0  0.12176713809265913  0.42395267480847626  0.8091753307053077  1.0000
  O   O11       1.0  0.6217673244394745  0.07685940254437915  0.8083190310011458  1.0000
  O   O12       1.0  0.878232642425877  0.5768592232715495  0.1916809797926553  1.0000
  O   O13       1.0  0.1994126476822491  0.8153674641640004  0.08858140223139245  1.0000
  O   O14       1.0  0.30058730897790525  0.3153675620415804  0.9114185664051014  1.0000
  O   O15       1.0  0.8005022472631352  0.18469726397074623  0.9116030547827345  1.0000
  O   O16       1.0  0.6994977831595447  0.6846971485706874  0.08839695601921561  1.0000
  O   O17       1.0  0.008584186277761923  0.2603236588053342  0.06437933323635306  1.0000
  O   O18       1.0  0.4914157605172404  0.7603236608578785  0.9356206519034915  1.0000
  O   O19       1.0  0.9912233852595905  0.7397895499645695  0.9357043723340137  1.0000
  O   O20       1.0  0.5087766762838547  0.23978947770906972  0.06429565317811647  1.0000
  O   O21       1.0  0.9833011300807221  0.9719200807368099  0.18912293441302191  1.0000
  O   O22       1.0  0.5166988929909438  0.4719201408605829  0.8108770634734472  1.0000
  O   O23       1.0  0.01698367076813068  0.027463517195949406  0.810863094454228  1.0000
  O   O24       1.0  0.4830162860036175  0.5274635538776904  0.1891368991191565  1.0000
  O   O25       1.0  0.1989544757126252  0.006939509742937968  0.3499257760067241  1.0000
  O   O26       1.0  0.3010455052994918  0.5069395300371293  0.650074226016571  1.0000
  O   O27       1.0  0.8012501796886334  0.9929382506163291  0.6499265480112245  1.0000
  O   O28       1.0  0.6987498244248468  0.49293827294320797  0.35007349170758206  1.0000
