data_cif

_audit_creation_method             'generated by GULP'

_symmetry_space_group_name_H-M     'P 1 21/A 1      '
_symmetry_Int_Tables_number        14
_symmetry_cell_setting             Monoclinic  

_cell_length_a                      12.659042
_cell_length_b                       5.688439
_cell_length_c                      11.490120
_cell_angle_alpha                   90.000000
_cell_angle_beta                   111.379547
_cell_angle_gamma                   90.000000

loop_
_atom_site_label
_atom_site_fract_x
_atom_site_fract_y
_atom_site_fract_z
_atom_site_occupancy
  C3          0.09004      0.48795      0.39468  1.0000
  C2          0.16409      0.46232      0.31630  1.0000
  C2          0.16586      0.21418      0.25951  1.0000
  C2          0.25698      0.21470      0.19809  1.0000
  C3          0.27472      0.97882      0.14482  1.0000
  C3          0.04533      0.15127      0.16208  1.0000
  H1          0.13405      0.59167      0.24075  1.0000
  H1          0.25008      0.51574      0.37561  1.0000
  H1          0.23654      0.34474      0.12281  1.0000
  H1          0.33841      0.26896      0.26801  1.0000
  H5          0.02805      0.69137      0.47330  1.0000
  H5          0.38302      0.77044      0.13773  1.0000
  H5          0.93858      0.21769      0.00966  1.0000
  H5          0.13415      0.97659      0.36831  1.0000
  O4          0.07444      0.71130      0.42119  1.0000
  O6          0.04628      0.32825      0.43132  1.0000
  O4          0.38288      0.93420      0.16381  1.0000
  O6          0.20095      0.83846      0.08982  1.0000
  O4          0.01886      0.26020      0.05223  1.0000
  O6          0.97945      0.01188      0.17914  1.0000
  O4          0.20230      0.04489      0.35846  1.0000
