# CIF file generated from CASTEP cell file
# https://gist.github.com/blake-armstrong/93facdde07a6e0a1ddb51857dd48e3f1
# Structure converted from CASTEP

data_structure

_cell_length_a    12.964666761094493
_cell_length_b    5.671202985082080
_cell_length_c    11.405007667487933
_cell_angle_alpha 90.000000000000000
_cell_angle_beta  111.218987327746945
_cell_angle_gamma 90.000000000000000

_symmetry_space_group_name_H-M 'P 1'
_symmetry_Int_Tables_number 1

loop_
_atom_site_label
_atom_site_type_symbol
_atom_site_fract_x
_atom_site_fract_y
_atom_site_fract_z
H1       H     0.130245892931467    0.567463751211717    0.247532639456148
H2       H     0.240871792970041    0.471675592228172    0.380544425197850
H3       H     0.202565935404624    0.310857199779819    0.104377116240807
H4       H     0.314697700799200    0.285276690914554    0.249758921204254
H5       H     0.030463157797403    0.681036502253509    0.490389274755977
H6       H     0.395376211077895   -0.234920369070706    0.172774082225556
H7       H    -0.072394726856379    0.213336275170422    0.010624213321982
H8       H     0.135469663812595   -0.060258952825928    0.370220060585730
H9       H     0.369754172372946    1.067463751211717    0.752467407910402
H10      H     0.259128272334371    0.971675592228172    0.619455622168701
H11      H     0.297434129899788    0.810857199779820    0.895622931125744
H12      H     0.185302364505213    0.785276690914554    0.750241126162296
H13      H     0.469536907507010    1.181036502253509    0.509610772610574
H14      H     0.104623854226517    0.265079630929295    0.827225965140994
H15      H     0.572394792160792    0.713336275170423    0.989375834044569
H16      H     0.364530401491817    0.439741047174072    0.629779986780821
H17      H     0.869754172372946    0.432536248788283    0.752467407910402
H18      H     0.759128272334372    0.528324407771828    0.619455622168701
H19      H     0.797434129899789    0.689142800220180    0.895622931125744
H20      H     0.685302364505213    0.714723309085446    0.750241126162296
H21      H     0.969536907507008    0.318963497746491    0.509610772610574
H22      H     0.604623854226516    1.234920369070704    0.827225965140994
H23      H     1.072394792160791    0.786663724829577    0.989375834044569
H24      H     0.864530401491817    1.060258952825929    0.629779986780821
H25      H     0.630245892931467   -0.067463751211717    0.247532639456148
H26      H     0.740871792970041    0.028324407771828    0.380544425197850
H27      H     0.702565935404624    0.189142800220180    0.104377116240807
H28      H     0.814697700799200    0.214723309085447    0.249758921204254
H29      H     0.530463157797405   -0.181036502253509    0.490389274755977
H30      H     0.895376211077896    0.734920369070705    0.172774082225556
H31      H     0.427605273143620    0.286663724829577    0.010624213321982
H32      H     0.635469663812595    0.560258952825928    0.370220060585730
C1       C     0.086135953044830    0.449914973972805    0.400169662456638
C2       C     0.155577136653513    0.428883742524020    0.319428834954675
C3       C     0.156856557779798    0.184573532259595    0.259508577315954
C4       C     0.238128698171060    0.201198907482705    0.188575132238732
C5       C     0.266577296795324   -0.038316530928359    0.150631503491740
C6       C     0.039581175641330    0.120665907911940    0.167589573393829
C7       C     0.413864112259582    0.949914973972806    0.599830384909913
C8       C     0.344422928650900    0.928883742524020    0.680571212411875
C9       C     0.343143507524615    0.684573532259595    0.740491470050596
C10      C     0.261871367133352    0.701198907482705    0.811424915127819
C11      C     0.233422768509091    0.461683469071641    0.849368543874811
C12      C     0.460418889663082    0.620665907911941    0.832410473972722
C13      C     0.913864112259583    0.550085026027194    0.599830384909913
C14      C     0.844422928650900    0.571116257475980    0.680571212411875
C15      C     0.843143507524616    0.815426467740405    0.740491470050596
C16      C     0.761871367133352    0.798801092517295    0.811424915127819
C17      C     0.733422768509089    1.038316530928357    0.849368543874811
C18      C     0.960418889663083    0.879334092088059    0.832410473972722
C19      C     0.586135953044829    0.050085026027193    0.400169662456638
C20      C     0.655577136653513    0.071116257475980    0.319428834954675
C21      C     0.656856557779797    0.315426467740405    0.259508577315954
C22      C     0.738128698171060    0.298801092517295    0.188575132238732
C23      C     0.766577296795323    0.538316530928359    0.150631503491740
C24      C     0.539581175641329    0.379334092088060    0.167589573393829
O1       O     0.079611572119064    0.668317018948550    0.436862089163555
O2       O     0.040649349941195    0.279614776813050    0.429681087384708
O3       O     0.374707826862749   -0.076706177004375    0.195226021750606
O4       O     0.199720965289925   -0.184801674218308    0.085748571387264
O5       O     0.004663996912697    0.258486222086780    0.067450547821670
O6       O    -0.013709177577317   -0.041381643162128    0.188963365307359
O7       O     0.197264271927177    0.006294478081278    0.351211651589445
O8       O     0.420388493185349    1.168317018948549    0.563137958202996
O9       O     0.459350715363217    0.779614776813049    0.570318959981842
O10      O     0.125292238441664    0.423293822995624    0.804774025615944
O11      O     0.300279100014488    0.315198325781692    0.914251475979286
O12      O     0.495336068391715    0.758486222086780    0.932549499544880
O13      O     0.513709242881729    0.458618356837872    0.811036682059192
O14      O     0.302735793377235    0.506294478081278    0.648788395777106
O15      O     0.920388493185350    0.331682981051449    0.563137958202996
O16      O     0.959350715363219    0.720385223186951    0.570318959981842
O17      O     0.625292238441664    1.076706177004374    0.804774025615944
O18      O     0.800279100014486    1.184801674218307    0.914251475979286
O19      O     0.995336068391714    0.741513777913220    0.932549499544880
O20      O     1.013709242881731    1.041381643162127    0.811036682059192
O21      O     0.802735793377236    0.993705521918722    0.648788395777106
O22      O     0.579611572119063   -0.168317018948550    0.436862089163555
O23      O     0.540649349941194    0.220385223186951    0.429681087384708
O24      O     0.874707826862749    0.576706177004375    0.195226021750606
O25      O     0.699720965289926    0.684801674218308    0.085748571387264
O26      O     0.504663996912698    0.241513777913220    0.067450547821670
O27      O     0.486290822422683    0.541381643162128    0.188963365307359
O28      O     0.697264271927176    0.493705521918721    0.351211651589445
