data_CITRAC10.b3lyp.6-311G**.dma4.-141.643.1.6596
_audit_creation_method 'generated by cspy2.0'
_cell_length_a 12.4625
_cell_length_b 5.7151
_cell_length_c 11.4752
_cell_angle_alpha 90.0
_cell_angle_beta 109.8152
_cell_angle_gamma 90.0
loop_
_symmetry_equiv_pos_site_id
_symmetry_equiv_pos_as_xyz
1 +x,+y,+z
loop_
_atom_site_label
_atom_site_type_symbol
_atom_site_fract_x
_atom_site_fract_y
_atom_site_fract_z
_atom_site_occupancy
C1 C       0.092268100000       0.456964290000       0.402215550000       1.000000000000
C2 C       0.166409910000       0.431834040000       0.324083570000       1.000000000000
C3 C       0.163258040000       0.191666190000       0.261331360000       1.000000000000
C4 C       0.252587630000       0.194987290000       0.196767920000       1.000000000000
C5 C       0.269300820000      -0.043590420000       0.149343400000       1.000000000000
C6 C       0.043640160000       0.147379680000       0.167517670000       1.000000000000
C7 C       0.898155260000       0.532868800000       0.608850420000       1.000000000000
C8 C       0.819305970000       0.554973840000       0.681795140000       1.000000000000
C9 C       0.821532090000       0.791485330000       0.747661390000       1.000000000000
C10 C       0.727656770000       0.786172500000       0.805960620000       1.000000000000
C11 C       0.710412270000       1.022292220000       0.855657830000       1.000000000000
C12 C       0.938992990000       0.828452790000       0.847110000000       1.000000000000
C13 C       0.390449340000       0.956964290000       0.606187370000       1.000000000000
C14 C       0.316307550000       0.931834040000       0.684319340000       1.000000000000
C15 C       0.319459420000       0.691666190000       0.747071550000       1.000000000000
C16 C       0.230129840000       0.694987270000       0.811635000000       1.000000000000
C17 C       0.213416640000       0.456409570000       0.859059520000       1.000000000000
C18 C       0.439077300000       0.647379690000       0.840885240000       1.000000000000
C19 C       0.584562190000       0.032868830000       0.399552480000       1.000000000000
C20 C       0.663411480000       0.054973860000       0.326607770000       1.000000000000
C21 C       0.661185360000       0.291485350000       0.260741520000       1.000000000000
C22 C       0.755060680000       0.286172500000       0.202442280000       1.000000000000
C23 C       0.772305200000       0.522292210000       0.152745070000       1.000000000000
C24 C       0.543724460000       0.328452810000       0.161292910000       1.000000000000
H1 H       0.148767150000       0.560825700000       0.262285550000       1.000000000000
H2 H       0.240030060000       0.459679490000       0.378201750000       1.000000000000
H3 H       0.230891760000       0.301679710000       0.124999780000       1.000000000000
H4 H       0.325755370000       0.248163500000       0.255349530000       1.000000000000
H5 H       0.034158050000       0.687314230000       0.497064030000       1.000000000000
H6 H       0.381053710000      -0.246369290000       0.158906420000       1.000000000000
H7 H      -0.053377840000       0.259680290000       0.016637200000       1.000000000000
H8 H       0.134111480000      -0.029473720000       0.361267980000       1.000000000000
H9 H       0.833214910000       0.422326270000       0.741175500000       1.000000000000
H10 H       0.746836160000       0.531433180000       0.624129670000       1.000000000000
H11 H       0.745396580000       0.675189310000       0.875730610000       1.000000000000
H12 H       0.655647180000       0.737553760000       0.743505870000       1.000000000000
H13 H       0.959792010000       0.306863680000       0.515081320000       1.000000000000
H14 H       0.599001690000       1.227458560000       0.843545050000       1.000000000000
H15 H       1.029463070000       0.706163520000       0.998581460000       1.000000000000
H16 H       0.857755320000       1.017513510000       0.655062810000       1.000000000000
H17 H       0.333950300000       1.060825700000       0.746117370000       1.000000000000
H18 H       0.242687380000       0.959679490000       0.630201160000       1.000000000000
H19 H       0.251825680000       0.801679690000       0.883403140000       1.000000000000
H20 H       0.156962080000       0.748163480000       0.753053390000       1.000000000000
H21 H       0.448559400000       1.187314250000       0.511338870000       1.000000000000
H22 H       0.101663750000       0.253630690000       0.849496500000       1.000000000000
H23 H       0.536095290000       0.759680280000       0.991765710000       1.000000000000
H24 H       0.348605970000       0.470526280000       0.647134920000       1.000000000000
H25 H       0.649502540000      -0.077673710000       0.267227420000       1.000000000000
H26 H       0.735881290000       0.031433200000       0.384273240000       1.000000000000
H27 H       0.737320870000       0.175189310000       0.132672310000       1.000000000000
H28 H       0.827070290000       0.237553770000       0.264897040000       1.000000000000
H29 H       0.522925440000      -0.193136270000       0.493321600000       1.000000000000
H30 H       0.883715780000       0.727458560000       0.164857860000       1.000000000000
H31 H       0.453254400000       0.206163520000       0.009821440000       1.000000000000
H32 H       0.624962130000       0.517513530000       0.353340090000       1.000000000000
O1 O       0.086893080000       0.668552100000       0.440930710000       1.000000000000
O2 O       0.041358760000       0.289091370000       0.427741930000       1.000000000000
O3 O       0.377454860000      -0.100277720000       0.184797570000       1.000000000000
O4 O       0.194232430000      -0.170459590000       0.086500870000       1.000000000000
O5 O       0.018726860000       0.289274430000       0.071669130000       1.000000000000
O6 O      -0.019630770000       0.000197420000       0.181859690000       1.000000000000
O7 O       0.194107890000       0.008064180000       0.348017930000       1.000000000000
O8 O       0.903689450000       0.323442620000       0.567529700000       1.000000000000
O9 O       0.952507500000       0.701162600000       0.589537260000       1.000000000000
O10 O       0.602668630000       1.082815050000       0.815832580000       1.000000000000
O11 O       0.784766990000       1.144294320000       0.923667080000       1.000000000000
O12 O       0.958562100000       0.680898910000       0.940073960000       1.000000000000
O13 O       1.005201680000       0.975231150000       0.839100000000       1.000000000000
O14 O       0.795843290000       0.980321790000       0.664072160000       1.000000000000
O15 O       0.395824370000       1.168552110000       0.567472210000       1.000000000000
O16 O       0.441358690000       0.789091380000       0.580660980000       1.000000000000
O17 O       0.105262590000       0.399722270000       0.823605340000       1.000000000000
O18 O       0.288485040000       0.329540390000       0.921902050000       1.000000000000
O19 O       0.463990600000       0.789274430000       0.936733780000       1.000000000000
O20 O       0.502348230000       0.500197420000       0.826543230000       1.000000000000
O21 O       0.288609570000       0.508064180000       0.660384980000       1.000000000000
O22 O       0.579028010000      -0.176557350000       0.440873210000       1.000000000000
O23 O       0.530209940000       0.201162620000       0.418865650000       1.000000000000
O24 O       0.880048820000       0.582815050000       0.192570310000       1.000000000000
O25 O       0.697950470000       0.644294310000       0.084735830000       1.000000000000
O26 O       0.524155360000       0.180898910000       0.068328940000       1.000000000000
O27 O       0.477515770000       0.475231160000       0.169302900000       1.000000000000
O28 O       0.686874170000       0.480321810000       0.344330750000       1.000000000000
#END