data_C6H8O7
_audit_creation_method 'chmpy python library version 1.0a1'
_cell_length_a 12.34524
_cell_length_b 5.482993
_cell_length_c 11.307471
_cell_angle_alpha 90.0
_cell_angle_beta 111.87302
_cell_angle_gamma 90.0
loop_
_symmetry_equiv_pos_site_id
_symmetry_equiv_pos_as_xyz
                   1 -x,-y,-z
                   2 +x,+y,+z
                   3 1/2-x,1/2+y,-z
                   4 1/2+x,1/2-y,+z
loop_
_atom_site_label
_atom_site_type_symbol
_atom_site_fract_x
_atom_site_fract_y
_atom_site_fract_z
_atom_site_occupancy
C C       0.109079000000       0.490852000000       0.399297000000       1.000000000000
C C       0.186903000000       0.477516000000       0.321918000000       1.000000000000
C C       0.182561000000       0.227722000000       0.252630000000       1.000000000000
C C       0.270103000000       0.221693000000       0.182002000000       1.000000000000
C C       0.296836000000      -0.033963000000       0.148307000000       1.000000000000
C C       0.057666000000       0.175886000000       0.156540000000       1.000000000000
H H       0.162764000000       0.627256000000       0.250580000000       1.000000000000
H H       0.278195000000       0.514131000000       0.387025000000       1.000000000000
H H       0.236484000000       0.335946000000       0.094627000000       1.000000000000
H H       0.354290000000       0.304198000000       0.244357000000       1.000000000000
H H       0.017962000000       0.707564000000       0.464319000000       1.000000000000
H H       0.428639000000      -0.250997000000       0.162160000000       1.000000000000
H H      -0.056804000000       0.237880000000      -0.013150000000       1.000000000000
H H       0.143487000000       0.001587000000       0.370479000000       1.000000000000
O O       0.071442000000       0.719111000000       0.415362000000       1.000000000000
O O       0.083657000000       0.306787000000       0.446637000000       1.000000000000
O O       0.411972000000      -0.072799000000       0.169194000000       1.000000000000
O O       0.221289000000      -0.193140000000       0.106210000000       1.000000000000
O O       0.029432000000       0.263743000000       0.035832000000       1.000000000000
O O      -0.011972000000       0.063691000000       0.191216000000       1.000000000000
O O       0.213937000000       0.036409000000       0.346992000000       1.000000000000
#END