data_image0
_chemical_formula_structural       C24H32O28
_chemical_formula_sum              "C24 H32 O28"
_cell_length_a       13.010204210766746
_cell_length_b       5.6256345517459785
_cell_length_c       11.390932997432053
_cell_angle_alpha    89.99797270564135
_cell_angle_beta     111.42091080623827
_cell_angle_gamma    89.99631598454701

_space_group_name_H-M_alt    "P 1"
_space_group_IT_number       1

loop_
  _space_group_symop_operation_xyz
  'x, y, z'

loop_
  _atom_site_type_symbol
  _atom_site_label
  _atom_site_symmetry_multiplicity
  _atom_site_fract_x
  _atom_site_fract_y
  _atom_site_fract_z
  _atom_site_occupancy
  C   C1        1.0  0.0825716463814038  0.44869545417463585  0.40000953340977125  1.0000
  C   C2        1.0  0.4173869256980444  0.9491561891848219  0.5996921589371911  1.0000
  C   C3        1.0  0.91712793212  0.5510448793037445  0.5998395940031497  1.0000
  C   C4        1.0  0.5825257627401578  0.05085305366301285  0.3996771572320892  1.0000
  C   C5        1.0  0.1507074231370325  0.4240774256131166  0.3194659932081413  1.0000
  C   C6        1.0  0.34968263208499034  0.9249215610595868  0.6807698299396883  1.0000
  C   C7        1.0  0.8494373706917973  0.5753836318918141  0.680903769363225  1.0000
  C   C8        1.0  0.6505822811111115  0.07546934870355565  0.31910952034619383  1.0000
  C   C9        1.0  0.15331977784775686  0.1767720121346351  0.2625192627619366  1.0000
  C   C10       1.0  0.3470015628713037  0.6777763697927347  0.737848409294048  1.0000
  C   C11       1.0  0.8465770603756918  0.8225543728569954  0.7378283351974306  1.0000
  C   C12       1.0  0.6531978362493346  0.3229248557884665  0.2622257520528092  1.0000
  C   C13       1.0  0.23372199935361515  0.19568620804073428  0.19171644336064153  1.0000
  C   C14       1.0  0.2664439270370721  0.6965733973098217  0.8084783603522224  1.0000
  C   C15       1.0  0.7660923952999958  0.8034153067120029  0.8085128956127274  1.0000
  C   C16       1.0  0.7336750934779518  0.30421800147258565  0.19153871563912092  1.0000
  C   C17       1.0  0.26295335593312263  0.958554340950017  0.1522435398333456  1.0000
  C   C18       1.0  0.23715306882061993  0.45917688589284733  0.8475525955645862  1.0000
  C   C19       1.0  0.7368623484960732  0.04071609864582518  0.8477824104481523  1.0000
  C   C20       1.0  0.7630014270131759  0.5413580014216826  0.15224348644210708  1.0000
  C   C21       1.0  0.036456463721200365  0.11008389921040772  0.17091220195786708  1.0000
  C   C22       1.0  0.46387120323259123  0.6111755528900336  0.8297579683201662  1.0000
  C   C23       1.0  0.9633925774410798  0.8897545174714327  0.8294961251436567  1.0000
  C   C24       1.0  0.5363950203601082  0.3896512968351579  0.17063026651972302  1.0000
  H   H1        1.0  0.12401896956095027  0.5607323693721915  0.2448461478818214  1.0000
  H   H2        1.0  0.37656484709494387  0.061666402785322726  0.755312029233243  1.0000
  H   H3        1.0  0.8764528887549161  0.4387598730953472  0.7555335848680775  1.0000
  H   H4        1.0  0.6239901466179713  0.9389761901845655  0.24441931303886777  1.0000
  H   H5        1.0  0.23589589812348682  0.4723213647825781  0.38041015510123066  1.0000
  H   H6        1.0  0.26444296006261475  0.9733600212055817  0.620070344786357  1.0000
  H   H7        1.0  0.7641947527730752  0.5265203855516973  0.6203647834531213  1.0000
  H   H8        1.0  0.7357978651181071  0.027327073383388467  0.38001420398614455  1.0000
  H   H9        1.0  0.1967670739147001  0.3086465396440494  0.10759423032624382  1.0000
  H   H10       1.0  0.3032109678708461  0.8092420061008634  0.8927103844731679  1.0000
  H   H11       1.0  0.802922144128921  0.6905661308300726  0.8926970261781119  1.0000
  H   H12       1.0  0.6968091029786369  0.19169386229747992  0.10722120388368442  1.0000
  H   H13       1.0  0.310577889880064  0.280888078075258  0.25348687615791077  1.0000
  H   H14       1.0  0.1896286736536972  0.7818497221603982  0.7466541156997268  1.0000
  H   H15       1.0  0.6893054640575034  0.7180711971986238  0.7467167261246938  1.0000
  H   H16       1.0  0.81046339844423  0.2187056919587147  0.25323724163181405  1.0000
  H   H17       1.0  0.02799839743221083  0.6817502850016897  0.4939904970716326  1.0000
  H   H18       1.0  0.4718891982935242  0.18177312520815542  0.5054347474075508  1.0000
  H   H19       1.0  0.9715583050313115  0.3183258660587185  0.5056022731085303  1.0000
  H   H20       1.0  0.5279390241646207  0.8179939987065512  0.49383392234824675  1.0000
  H   H21       1.0  0.39321951289996826  0.7588562731502466  0.17485531259308779  1.0000
  H   H22       1.0  0.10705371684003112  0.25942635880924975  0.824621484268694  1.0000
  H   H23       1.0  0.606945669102656  0.2405559139132766  0.8254619559944097  1.0000
  H   H24       1.0  0.8932397960987585  0.7401759710728468  0.17414180870903576  1.0000
  H   H25       1.0  0.923222942048632  0.1976720461576324  0.009342826083595336  1.0000
  H   H26       1.0  0.5767689764301442  0.6985695294428381  0.9915555653110459  1.0000
  H   H27       1.0  0.07680904809688724  0.802341573930515  0.9909732344253467  1.0000
  H   H28       1.0  0.4231456306725764  0.30202327889947217  0.009014885526656033  1.0000
  H   H29       1.0  0.13173681871313353  0.9289248950187209  0.3730953443048841  1.0000
  H   H30       1.0  0.36859316652746266  0.43174944189809045  0.6265788698317325  1.0000
  H   H31       1.0  0.8677920411657309  0.06958566774986567  0.626774070995265  1.0000
  H   H32       1.0  0.6318003604071579  0.5708964877016014  0.37293553156442216  1.0000
  O   O1        1.0  0.07747848149726727  0.6659032769484596  0.4381261299883252  1.0000
  O   O2        1.0  0.422497573731348  0.16622240779782899  0.5614805291649232  1.0000
  O   O3        1.0  0.9221266869303425  0.33395655820868303  0.5615529326649183  1.0000
  O   O4        1.0  0.5775236093778434  0.8337256111017379  0.43799761447604546  1.0000
  O   O5        1.0  0.036341822462896016  0.2766647382209317  0.42851706492203046  1.0000
  O   O6        1.0  0.4634243999306044  0.776954135883776  0.5709978284467172  1.0000
  O   O7        1.0  0.9633094212380919  0.7230765897807355  0.5712684406460251  1.0000
  O   O8        1.0  0.5363503149581236  0.22300854506747353  0.4281448738777799  1.0000
  O   O9        1.0  0.36987711304515863  0.9200353236125026  0.19576629289963488  1.0000
  O   O10       1.0  0.13020375400812595  0.4206678108207245  0.803748195496147  1.0000
  O   O11       1.0  0.6299101681450522  0.07916498984114008  0.804568992459041  1.0000
  O   O12       1.0  0.8699866479120868  0.5788670502054886  0.19484455605031895  1.0000
  O   O13       1.0  0.19590935620832664  0.8118140712887061  0.08592936188321836  1.0000
  O   O14       1.0  0.3040635090851684  0.3121340172018557  0.9137585415487252  1.0000
  O   O15       1.0  0.8039329621872281  0.18784082385843107  0.9136250760708833  1.0000
  O   O16       1.0  0.6959083683743998  0.6888884276539636  0.08673690243956043  1.0000
  O   O17       1.0  0.0018943808406843077  0.24071725919741097  0.06899038030175231  1.0000
  O   O18       1.0  0.49803812539534337  0.7413573775963445  0.931802974332413  1.0000
  O   O19       1.0  0.9981161843668138  0.7588964402539982  0.9312986241333409  1.0000
  O   O20       1.0  0.5018363900753844  0.25889415094218565  0.06877561537343198  1.0000
  O   O21       1.0  0.9843268232804443  0.9500156213558496  0.1971195276994895  1.0000
  O   O22       1.0  0.5163689327384945  0.4517146844770293  0.8036797715031673  1.0000
  O   O23       1.0  0.015441661566397348  0.050225909296179296  0.8034908042871194  1.0000
  O   O24       1.0  0.48425355450627894  0.5498130587622893  0.19679379694361823  1.0000
  O   O25       1.0  0.19364436303619587  0.0011614353415661943  0.35502754532082303  1.0000
  O   O26       1.0  0.3067336586040482  0.501917573575253  0.6455071793560119  1.0000
  O   O27       1.0  0.8059823672030649  0.9981484335679236  0.6453197482832426  1.0000
  O   O28       1.0  0.6936325101051332  0.4983085388980899  0.35486841614299675  1.0000
