data_ANTCEN14.b3lyp.6-311G**.dma4.-97.7794.1.2962
_audit_creation_method 'generated by cspy2.0'
_cell_length_a 8.7764
_cell_length_b 5.6422
_cell_length_c 10.974
_cell_angle_alpha 90.0
_cell_angle_beta 122.8216
_cell_angle_gamma 90.0
loop_
_symmetry_equiv_pos_site_id
_symmetry_equiv_pos_as_xyz
1 +x,+y,+z
loop_
_atom_site_label
_atom_site_type_symbol
_atom_site_fract_x
_atom_site_fract_y
_atom_site_fract_z
_atom_site_occupancy
C1 C       0.093732920000       0.035767660000       0.371790150000       1.000000000000
C2 C      -0.093732920000      -0.035767660000      -0.371790150000       1.000000000000
C3 C       0.125005060000       0.165958730000       0.283967020000       1.000000000000
C4 C      -0.125005060000      -0.165958730000      -0.283967020000       1.000000000000
C5 C       0.062600860000       0.087140400000       0.140464240000       1.000000000000
C6 C      -0.062600860000      -0.087140400000      -0.140464240000       1.000000000000
C7 C       0.091299170000       0.216254120000       0.046463520000       1.000000000000
C8 C      -0.091299170000      -0.216254120000      -0.046463520000       1.000000000000
C9 C      -0.030538480000      -0.135099660000       0.092907840000       1.000000000000
C10 C       0.030538480000       0.135099660000      -0.092907840000       1.000000000000
C11 C       0.060304000000       0.264686470000      -0.189745010000       1.000000000000
C12 C      -0.060304000000      -0.264686470000       0.189745010000       1.000000000000
C13 C       0.000211290000       0.182462260000      -0.324306660000       1.000000000000
C14 C      -0.000211290000      -0.182462260000       0.324306660000       1.000000000000
C15 C       0.406267080000       0.535767660000       0.628209850000       1.000000000000
C16 C       0.593732920000       0.464232340000       1.371790150000       1.000000000000
C17 C       0.374994940000       0.665958730000       0.716032980000       1.000000000000
C18 C       0.625005060000       0.334041270000       1.283967020000       1.000000000000
C19 C       0.437399140000       0.587140400000       0.859535760000       1.000000000000
C20 C       0.562600860000       0.412859600000       1.140464240000       1.000000000000
C21 C       0.408700830000       0.716254120000       0.953536480000       1.000000000000
C22 C       0.591299170000       0.283745880000       1.046463520000       1.000000000000
C23 C       0.530538480000       0.364900340000       0.907092160000       1.000000000000
C24 C       0.469461520000       0.635099660000       1.092907840000       1.000000000000
C25 C       0.439696000000       0.764686470000       1.189745010000       1.000000000000
C26 C       0.560304000000       0.235313530000       0.810254990000       1.000000000000
C27 C       0.499788710000       0.682462260000       1.324306660000       1.000000000000
C28 C       0.500211290000       0.317537740000       0.675693340000       1.000000000000
H1 H      -0.136463530000      -0.092511590000      -0.467780970000       1.000000000000
H2 H       0.136463530000       0.092511590000       0.467780970000       1.000000000000
H3 H      -0.191547430000      -0.313206330000      -0.316130440000       1.000000000000
H4 H       0.191547430000       0.313206330000       0.316130440000       1.000000000000
H5 H      -0.157257410000      -0.364755510000      -0.079801800000       1.000000000000
H6 H       0.157257410000       0.364755510000       0.079801800000       1.000000000000
H7 H       0.125922080000       0.418287100000      -0.154593170000       1.000000000000
H8 H      -0.125922080000      -0.418287100000       0.154593170000       1.000000000000
H9 H      -0.023631770000      -0.275138670000       0.391193650000       1.000000000000
H10 H       0.023631770000       0.275138670000      -0.391193650000       1.000000000000
H11 H       0.636463530000       0.407488410000       1.467780970000       1.000000000000
H12 H       0.363536470000       0.592511590000       0.532219030000       1.000000000000
H13 H       0.691547430000       0.186793670000       1.316130440000       1.000000000000
H14 H       0.308452570000       0.813206330000       0.683869560000       1.000000000000
H15 H       0.657257410000       0.135244490000       1.079801800000       1.000000000000
H16 H       0.342742590000       0.864755510000       0.920198200000       1.000000000000
H17 H       0.374077920000       0.918287100000       1.154593170000       1.000000000000
H18 H       0.625922080000       0.081712900000       0.845406830000       1.000000000000
H19 H       0.523631770000       0.224861330000       0.608806350000       1.000000000000
H20 H       0.476368230000       0.775138670000       1.391193650000       1.000000000000
#END