# CIF file generated from CASTEP cell file
# https://gist.github.com/blake-armstrong/93facdde07a6e0a1ddb51857dd48e3f1
# Structure converted from CASTEP

data_structure

_cell_length_a    8.420198673919820
_cell_length_b    5.959883458872630
_cell_length_c    11.129085793920295
_cell_angle_alpha 90.000000000000000
_cell_angle_beta  125.344395011677591
_cell_angle_gamma 90.000000000000000

_symmetry_space_group_name_H-M 'P 1'
_symmetry_Int_Tables_number 1

loop_
_atom_site_label
_atom_site_type_symbol
_atom_site_fract_x
_atom_site_fract_y
_atom_site_fract_z
H1       H     0.132844041901181    0.091595758930532    0.476026230330402
H2       H     0.186924862535140    0.323896867517425    0.318903694235224
H3       H     0.156681864761921    0.377098486919373    0.086184312927158
H4       H    -0.129440045049736   -0.427235805399791    0.145054134632068
H5       H    -0.028817210346799   -0.284395550988296    0.387560799903392
H6       H     0.367155958098819    0.591595758930532   -0.476026230330402
H7       H     0.313075137464860    0.823896867517425   -0.318903694235224
H8       H     0.343318135238079    0.877098486919374   -0.086184312927158
H9       H     0.629440045049737    0.072764194600209   -0.145054134632068
H10      H     0.528817210346799    0.215604449011704   -0.387560799903392
H11      H    -0.132844041901181   -0.091595758930532   -0.476026230330402
H12      H    -0.186924862535140   -0.323896867517425   -0.318903694235224
H13      H    -0.156681864761921   -0.377098486919373   -0.086184312927158
H14      H     0.129440045049736    0.427235805399791   -0.145054134632068
H15      H     0.028817210346799    0.284395550988296   -0.387560799903392
H16      H     0.632844041901181    0.408404241069468    0.476026230330402
H17      H     0.686924862535139    0.176103132482575    0.318903694235224
H18      H     0.656681864761921    0.122901513080627    0.086184312927158
H19      H     0.370559954950263    0.927235805399790    0.145054134632068
H20      H     0.471182789653201    0.784395550988295    0.387560799903392
C1       C     0.086842874441832    0.030455281106970    0.368161427208062
C2       C     0.117817236602180    0.160000748057167    0.281400088838422
C3       C     0.059166102727033    0.083890806196514    0.139702109263872
C4       C     0.087771115297009    0.212938680696481    0.048472522660389
C5       C    -0.031148498459601   -0.134407267366818    0.089796837620024
C6       C    -0.060706205862325   -0.263454842543581    0.183109973554838
C7       C    -0.004295730498996   -0.183276433449493    0.318163143982661
C8       C     0.413157125558168    0.530455281106969   -0.368161427208062
C9       C     0.382182763397820    0.660000748057167   -0.281400088838422
C10      C     0.440833897272967    0.583890806196514   -0.139702109263872
C11      C     0.412228884702988    0.712938680696481   -0.048472522660389
C12      C     0.531148498459601    0.365592732633181   -0.089796837620024
C13      C     0.560706205862324    0.236545157456419   -0.183109973554838
C14      C     0.504295730498997    0.316723566550507   -0.318163143982661
C15      C    -0.086842874441832   -0.030455281106970   -0.368161427208062
C16      C    -0.117817236602180   -0.160000748057167   -0.281400088838422
C17      C    -0.059166102727033   -0.083890806196514   -0.139702109263872
C18      C    -0.087771115297009   -0.212938680696481   -0.048472522660389
C19      C     0.031148498459601    0.134407267366818   -0.089796837620024
C20      C     0.060706205862325    0.263454842543581   -0.183109973554838
C21      C     0.004295730498996    0.183276433449493   -0.318163143982661
C22      C     0.586842874441832    0.469544718893030    0.368161427208062
C23      C     0.617817236602180    0.339999251942832    0.281400088838422
C24      C     0.559166102727033    0.416109193803486    0.139702109263872
C25      C     0.587771115297009    0.287061319303519    0.048472522660389
C26      C     0.468851501540399    0.634407267366818    0.089796837620024
C27      C     0.439293794137675    0.763454842543582    0.183109973554838
C28      C     0.495704269501004    0.683276433449493    0.318163143982661
