data_image0
_chemical_formula_structural       C28H20
_chemical_formula_sum              "C28 H20"
_cell_length_a       8.953923181835949
_cell_length_b       6.05857781317491
_cell_length_c       12.232610253840662
_cell_angle_alpha    90.113902284728
_cell_angle_beta     128.1462809209888
_cell_angle_gamma    89.87577734872723

_space_group_name_H-M_alt    "P 1"
_space_group_IT_number       1

loop_
  _space_group_symop_operation_xyz
  'x, y, z'

loop_
  _atom_site_type_symbol
  _atom_site_label
  _atom_site_symmetry_multiplicity
  _atom_site_fract_x
  _atom_site_fract_y
  _atom_site_fract_z
  _atom_site_occupancy
  C   C1        1.0  0.10643929274238803  0.06107143212034365  0.3451106141901374  1.0000
  C   C2        1.0  0.396732517827976  0.5603364883190108  0.6560191643173401  1.0000
  C   C3        1.0  0.8928023646238551  0.9395274291225738  0.6552345840928167  1.0000
  C   C4        1.0  0.6036549595669544  0.4392527768477665  0.3434711863344063  1.0000
  C   C5        1.0  0.13491486800239352  0.1751942620856694  0.2625787121333944  1.0000
  C   C6        1.0  0.3669728952235051  0.674604717020055  0.7380722663687532  1.0000
  C   C7        1.0  0.8645421158206722  0.8254330401040492  0.7378938369928136  1.0000
  C   C8        1.0  0.6332395272248005  0.32504331936764247  0.2613386866699762  1.0000
  C   C9        1.0  0.06873189461408348  0.09063746323774444  0.130898453800333  1.0000
  C   C10       1.0  0.4322529169986013  0.5901712288539822  0.8694344356197236  1.0000
  C   C11       1.0  0.9313930760234546  0.9096983915319797  0.8697638934571733  1.0000
  C   C12       1.0  0.5676933378846402  0.40942556476106606  0.12990911875164374  1.0000
  C   C13       1.0  0.09551366102838868  0.20368211532283953  0.04456381133816744  1.0000
  C   C14       1.0  0.4043890643202408  0.7035143072459269  0.9553630309688714  1.0000
  C   C15       1.0  0.9048673170540221  0.7965085234849174  0.9561951939642434  1.0000
  C   C16       1.0  0.5956003184719141  0.2961461234973157  0.04403961413726906  1.0000
  C   C17       1.0  0.9709398699424586  0.8813057770415479  0.0855599510859047  1.0000
  C   C18       1.0  0.5303353410331854  0.3807838364958633  0.9149339394061029  1.0000
  C   C19       1.0  0.029378307653932286  0.11889798187962884  0.915149354423096  1.0000
  C   C20       1.0  0.4695302132422473  0.6187490205843177  0.08442096835145607  1.0000
  C   C21       1.0  0.9440974156987664  0.7681592307127293  0.1741073807791412  1.0000
  C   C22       1.0  0.5582339563156978  0.26735734268455735  0.8268290244914004  1.0000
  C   C23       1.0  0.05604013494923976  0.23203569512731329  0.8265108397338153  1.0000
  C   C24       1.0  0.44175659086644065  0.7321290912284469  0.17263444788194332  1.0000
  C   C25       1.0  0.010039853512248786  0.8554454978922561  0.3003824459581417  1.0000
  C   C26       1.0  0.4932631913720208  0.3545277599162926  0.7008664858710536  1.0000
  C   C27       1.0  0.9896730348572319  0.14488421934871235  0.7000891020837587  1.0000
  C   C28       1.0  0.5069338589068632  0.6449018955964276  0.2986200484334293  1.0000
  H   H1        1.0  0.15768733284881584  0.12921722365635335  0.4458647443239695  1.0000
  H   H2        1.0  0.34632724552660915  0.62860308714857  0.5555666087987309  1.0000
  H   H3        1.0  0.8409937311028133  0.871582167028232  0.5542958289274872  1.0000
  H   H4        1.0  0.6544177918892672  0.37129445524246124  0.44404724980210475  1.0000
  H   H5        1.0  0.2085136780897393  0.3343197973077898  0.2959936809790944  1.0000
  H   H6        1.0  0.29308049579442647  0.8337628890971516  0.7044534678985109  1.0000
  H   H7        1.0  0.7906928530416614  0.666480476255543  0.7044789984503371  1.0000
  H   H8        1.0  0.7071835943248753  0.16593709806160178  0.29478047371877003  1.0000
  H   H9        1.0  0.17101912823588095  0.36213266462775395  0.07949252893591162  1.0000
  H   H10       1.0  0.32877503974130506  0.8620801007840747  0.9203550932736158  1.0000
  H   H11       1.0  0.8292962449864386  0.6381496988692252  0.9212236250474919  1.0000
  H   H12       1.0  0.6712956919398648  0.13765008666785944  0.07904698569702778  1.0000
  H   H13       1.0  0.8691410142447282  0.6098122629711618  0.13942054125788952  1.0000
  H   H14       1.0  0.6332265331166083  0.10884642099892669  0.8615206710225088  1.0000
  H   H15       1.0  0.1312677505354255  0.3902189429065008  0.8612074181803362  1.0000
  H   H16       1.0  0.36665967337759225  0.8905755199743103  0.13797151353761383  1.0000
  H   H17       1.0  0.9872636362408889  0.7662584779609477  0.36676141441731375  1.0000
  H   H18       1.0  0.517133694015865  0.26508238707432585  0.6349600132266983  1.0000
  H   H19       1.0  0.012599980059888216  0.233998930691326  0.633747860718881  1.0000
  H   H20       1.0  0.4834700446209219  0.7343617742405361  0.36473765289789406  1.0000
