data_image0
_chemical_formula_structural       C28H20
_chemical_formula_sum              "C28 H20"
_cell_length_a       8.5526
_cell_length_b       6.0158
_cell_length_c       11.172
_cell_angle_alpha    90.0
_cell_angle_beta     124.59599999999999
_cell_angle_gamma    90.0

_space_group_name_H-M_alt    "P 1"
_space_group_IT_number       1

loop_
  _space_group_symop_operation_xyz
  'x, y, z'

loop_
  _atom_site_type_symbol
  _atom_site_label
  _atom_site_symmetry_multiplicity
  _atom_site_fract_x
  _atom_site_fract_y
  _atom_site_fract_z
  _atom_site_occupancy
  C   C1        1.0  0.09076879333656836  0.03289032721784397  0.36787026547858936  1.0000
  C   C2        1.0  0.4092311474276241  0.5328902839027772  0.6321297553490507  1.0000
  C   C3        1.0  0.9091883468169598  0.9670591580055762  0.6319513069411182  1.0000
  C   C4        1.0  0.5908116678979789  0.46705901707976294  0.3680486082384993  1.0000
  C   C5        1.0  0.12022030043636375  0.15986231399765075  0.28008129677633403  1.0000
  C   C6        1.0  0.3797797760568899  0.6598624374785118  0.7199187672457462  1.0000
  C   C7        1.0  0.8795943743586744  0.8401546805551995  0.7196822380823826  1.0000
  C   C8        1.0  0.620405676566639  0.34015466538672434  0.2803176879503704  1.0000
  C   C9        1.0  0.06047610840810197  0.0837154531331266  0.13902707558242103  1.0000
  C   C10       1.0  0.439523958722707  0.5837155582315227  0.8609730847855616  1.0000
  C   C11       1.0  0.9392949620710503  0.9163043813395604  0.8607305644401092  1.0000
  C   C12       1.0  0.5607050896169625  0.4163042700433249  0.13926939104877425  1.0000
  C   C13       1.0  0.08787478004717102  0.2099707227496288  0.046821645413476665  1.0000
  C   C14       1.0  0.41212504983855286  0.7099707079436465  0.9531781318745987  1.0000
  C   C15       1.0  0.9118873822900708  0.790067905307636  0.9529274937800029  1.0000
  C   C16       1.0  0.588112406411829  0.29006807670928125  0.04707241838918303  1.0000
  C   C17       1.0  0.9699670206541945  0.8682549873646851  0.09070081406441308  1.0000
  C   C18       1.0  0.5300329971008002  0.36825498149741964  0.9092992433944054  1.0000
  C   C19       1.0  0.029811033509474356  0.13176484551428275  0.9090635496269714  1.0000
  C   C20       1.0  0.47018899364289307  0.6317647030126806  0.09093647776800369  1.0000
  C   C21       1.0  0.9420535398376803  0.7418210077898678  0.18519103223530714  1.0000
  C   C22       1.0  0.5579464777867834  0.2418210946129885  0.8148090820084343  1.0000
  C   C23       1.0  0.057791690882827276  0.25817828988921604  0.8145986091389614  1.0000
  C   C24       1.0  0.44220844773218304  0.7581782265895176  0.185401340908673  1.0000
  C   C25       1.0  1.3199717991962956e-06  0.821812276872521  0.31964878524839985  1.0000
  C   C26       1.0  0.4999986313995822  0.32181231450804615  0.6803512147416179  1.0000
  C   C27       1.0  0.9999118183042439  0.1781708375810074  0.6801575498499475  1.0000
  C   C28       1.0  0.5000881515428891  0.6781708431046216  0.31984235658585825  1.0000
  H   H1        1.0  0.13769288213234235  0.0939943312369792  0.47530168018012686  1.0000
  H   H2        1.0  0.3623071014013139  0.5939944711822676  0.5246983618603759  1.0000
  H   H3        1.0  0.8623516647305842  0.905931933353702  0.5245445959418782  1.0000
  H   H4        1.0  0.6376483469751109  0.4059320426209681  0.47545532342055863  1.0000
  H   H5        1.0  0.18923616163259918  0.32183400158244496  0.31628490881418475  1.0000
  H   H6        1.0  0.3107639254010933  0.8218339849920812  0.6837152144144696  1.0000
  H   H7        1.0  0.8105958777095923  0.6781728517451195  0.6834593515520426  1.0000
  H   H8        1.0  0.6894042753008942  0.1781727590833633  0.31654062386184323  1.0000
  H   H9        1.0  0.156915851199336  0.37210951316903446  0.0833336652560685  1.0000
  H   H10       1.0  0.34308408528335327  0.8721094460853906  0.9166662768052843  1.0000
  H   H11       1.0  0.8428746586457899  0.627913207667852  0.9164146936470753  1.0000
  H   H12       1.0  0.6571252810629641  0.1279131835655215  0.08358540968968212  1.0000
  H   H13       1.0  0.8731042026454477  0.5800778371325505  0.14835334622616345  1.0000
  H   H14       1.0  0.626895686622021  0.08007798438588151  0.8516468376307124  1.0000
  H   H15       1.0  0.12667498497860075  0.4199575254817061  0.8514329004625885  1.0000
  H   H16       1.0  0.37332506436848134  0.9199573470792058  0.1485669880101224  1.0000
  H   H17       1.0  0.9767992721111239  0.7225513365527811  0.3899864106112485  1.0000
  H   H18       1.0  0.5232006796528622  0.22255140000605453  0.6100136715141975  1.0000
  H   H19       1.0  0.023136786352473536  0.27743063269041557  0.6098323233807875  1.0000
  H   H20       1.0  0.47686320774354324  0.777430618625586  0.3901675936553057  1.0000
