data_cif

_audit_creation_method             'generated by GULP'

_symmetry_space_group_name_H-M     'P 1 21/A 1      '
_symmetry_Int_Tables_number        14
_symmetry_cell_setting             Monoclinic  

_cell_length_a                       8.170342
_cell_length_b                       6.043171
_cell_length_c                      11.064590
_cell_angle_alpha                   90.000000
_cell_angle_beta                   126.873300
_cell_angle_gamma                   90.000000

loop_
_atom_site_label
_atom_site_fract_x
_atom_site_fract_y
_atom_site_fract_z
_atom_site_occupancy
  C2          0.08441      0.02814      0.36949  1.0000
  C2          0.11312      0.16055      0.27929  1.0000
  C2          0.05680      0.08104      0.13972  1.0000
  C2          0.08158      0.21439      0.04777  1.0000
  C2          0.97504      0.86628      0.09170  1.0000
  C2          0.94919      0.73384      0.18319  1.0000
  C2          0.00176      0.81477      0.32114  1.0000
  H1          0.12566      0.09145      0.47629  1.0000
  H1          0.17719      0.32541      0.31683  1.0000
  H1          0.14655      0.37910      0.08515  1.0000
  H1          0.88620      0.56876      0.14625  1.0000
  H1          0.97794      0.71135      0.38972  1.0000
