data_C7H5
_audit_creation_method 'chmpy python library version 1.0a1'
_cell_length_a 8.225677
_cell_length_b 5.593417
_cell_length_c 11.216013
_cell_angle_alpha 90.0
_cell_angle_beta 124.42960099999999
_cell_angle_gamma 90.0
loop_
_symmetry_equiv_pos_site_id
_symmetry_equiv_pos_as_xyz
                   1 -x,-y,-z
                   2 +x,+y,+z
                   3 1/2-x,1/2+y,-z
                   4 1/2+x,1/2-y,+z
loop_
_atom_site_label
_atom_site_type_symbol
_atom_site_fract_x
_atom_site_fract_y
_atom_site_fract_z
_atom_site_occupancy
C C       0.101876000000       0.060657000000       0.370674000000       1.000000000000
C C       0.134238000000       0.188131000000       0.280712000000       1.000000000000
C C       0.067033000000       0.098451000000       0.138804000000       1.000000000000
C C       0.095537000000       0.225861000000       0.043058000000       1.000000000000
C C       0.968887000000       0.866755000000       0.094414000000       1.000000000000
C C       0.939851000000       0.739807000000       0.193244000000       1.000000000000
C C       1.002679000000       0.834124000000       0.326202000000       1.000000000000
H H       0.152392000000       0.131861000000       0.477098000000       1.000000000000
H H       0.211881000000       0.359240000000       0.315062000000       1.000000000000
H H       0.172263000000       0.397275000000       0.077194000000       1.000000000000
H H       0.865601000000       0.566905000000       0.159495000000       1.000000000000
H H       0.978191000000       0.734716000000       0.398785000000       1.000000000000
#END