data_C5H7
_audit_creation_method 'chmpy python library version 1.0a1'
_cell_length_a 10.981705
_cell_length_b 5.583682
_cell_length_c 6.775854
_cell_angle_alpha 90.0
_cell_angle_beta 112.683395
_cell_angle_gamma 90.0
loop_
_symmetry_equiv_pos_site_id
_symmetry_equiv_pos_as_xyz
                   1 -x,-y,-z
                   2 +x,+y,+z
                   3 1/2-x,1/2+y,-z
                   4 1/2+x,1/2-y,+z
loop_
_atom_site_label
_atom_site_type_symbol
_atom_site_fract_x
_atom_site_fract_y
_atom_site_fract_z
_atom_site_occupancy
C C       0.190962000000       0.342932000000       0.281473000000       1.000000000000
C C       0.093286000000       0.167416000000       0.134641000000       1.000000000000
C C       0.033037000000       0.995093000000       0.219840000000       1.000000000000
C C       0.058808000000       0.173582000000       0.909629000000       1.000000000000
C C       0.118539000000       0.356170000000       0.809047000000       1.000000000000
H H       0.280915000000       0.355980000000       0.245588000000       1.000000000000
H H       0.147528000000       0.524256000000       0.265265000000       1.000000000000
H H       0.222668000000       0.289572000000       0.451255000000       1.000000000000
H H       0.058722000000       0.991911000000       0.392308000000       1.000000000000
H H       0.224425000000       0.319301000000       0.848875000000       1.000000000000
H H       0.110598000000       0.539158000000       0.865853000000       1.000000000000
H H       0.068335000000       0.357617000000       0.632543000000       1.000000000000
#END