data_DURENE01.b3lyp.6-311G**.dma4.-71.3447.1.086
_audit_creation_method 'generated by cspy2.0'
_cell_length_a 11.7028
_cell_length_b 5.5542
_cell_length_c 7.0475
_cell_angle_alpha 90.0
_cell_angle_beta 116.3662
_cell_angle_gamma 90.0
loop_
_symmetry_equiv_pos_site_id
_symmetry_equiv_pos_as_xyz
1 +x,+y,+z
loop_
_atom_site_label
_atom_site_type_symbol
_atom_site_fract_x
_atom_site_fract_y
_atom_site_fract_z
_atom_site_occupancy
C1 C       0.185866810000       0.342651370000       0.284816620000       1.000000000000
C2 C      -0.185866810000      -0.342651370000      -0.284816620000       1.000000000000
C3 C       0.090420260000       0.166946360000       0.135920550000       1.000000000000
C4 C      -0.090420260000      -0.166946360000      -0.135920550000       1.000000000000
C5 C       0.028528140000       0.005029260000       0.209912840000       1.000000000000
C6 C      -0.028528140000      -0.005029260000      -0.209912840000       1.000000000000
C7 C       0.060935570000       0.161069400000      -0.079709360000       1.000000000000
C8 C      -0.060935570000      -0.161069400000       0.079709360000       1.000000000000
C9 C       0.123404850000       0.330561200000      -0.173274420000       1.000000000000
C10 C      -0.123404850000      -0.330561200000       0.173274420000       1.000000000000
C11 C       0.314133190000       0.842651330000       0.715183380000       1.000000000000
C12 C       0.685866810000       0.157348670000       1.284816620000       1.000000000000
C13 C       0.409579730000       0.666946350000       0.864079450000       1.000000000000
C14 C       0.590420270000       0.333053650000       1.135920550000       1.000000000000
C15 C       0.471471850000       0.505029240000       0.790087160000       1.000000000000
C16 C       0.528528150000       0.494970760000       1.209912840000       1.000000000000
C17 C       0.439064440000       0.661069420000       1.079709370000       1.000000000000
C18 C       0.560935560000       0.338930580000       0.920290630000       1.000000000000
C19 C       0.376595150000       0.830561220000       1.173274430000       1.000000000000
C20 C       0.623404850000       0.169438780000       0.826725570000       1.000000000000
H1 H      -0.276222400000      -0.327317550000      -0.281831080000       1.000000000000
H2 H       0.276222400000       0.327317550000       0.281831080000       1.000000000000
H3 H      -0.163679890000      -0.521940650000      -0.245977850000       1.000000000000
H4 H       0.163679890000       0.521940650000       0.245977850000       1.000000000000
H5 H      -0.199229480000      -0.319112690000      -0.438242980000       1.000000000000
H6 H       0.199229480000       0.319112690000       0.438242980000       1.000000000000
H7 H      -0.052425440000      -0.008471320000      -0.379103860000       1.000000000000
H8 H       0.052425440000       0.008471320000       0.379103860000       1.000000000000
H9 H      -0.223862440000      -0.310385760000       0.104473910000       1.000000000000
H10 H       0.223862440000       0.310385760000      -0.104473910000       1.000000000000
H11 H      -0.107458750000      -0.513816800000       0.152594920000       1.000000000000
H12 H       0.107458750000       0.513816800000      -0.152594920000       1.000000000000
H13 H       0.091473430000       0.307904240000      -0.334264470000       1.000000000000
H14 H      -0.091473430000      -0.307904240000       0.334264470000       1.000000000000
H15 H       0.776222410000       0.172682480000       1.281831060000       1.000000000000
H16 H       0.223777590000       0.827317520000       0.718168940000       1.000000000000
H17 H       0.663679900000      -0.021940620000       1.245977830000       1.000000000000
H18 H       0.336320100000       1.021940620000       0.754022170000       1.000000000000
H19 H       0.699229480000       0.180887370000       1.438242970000       1.000000000000
H20 H       0.300770520000       0.819112630000       0.561757030000       1.000000000000
H21 H       0.552425450000       0.491528730000       1.379103860000       1.000000000000
H22 H       0.447574550000       0.508471270000       0.620896140000       1.000000000000
H23 H       0.723862440000       0.189614220000       0.895526070000       1.000000000000
H24 H       0.276137560000       0.810385780000       1.104473930000       1.000000000000
H25 H       0.607458750000      -0.013816840000       0.847405050000       1.000000000000
H26 H       0.392541250000       1.013816840000       1.152594950000       1.000000000000
H27 H       0.408526580000       0.807904290000       1.334264500000       1.000000000000
H28 H       0.591473420000       0.192095710000       0.665735500000       1.000000000000
#END