# CIF file generated from CASTEP cell file
# https://gist.github.com/blake-armstrong/93facdde07a6e0a1ddb51857dd48e3f1
# Structure converted from CASTEP

data_structure

_cell_length_a    11.678952488007484
_cell_length_b    5.533548565528360
_cell_length_c    6.826064468331529
_cell_angle_alpha 90.000000000000000
_cell_angle_beta  112.594993593258494
_cell_angle_gamma 90.000000000000000

_symmetry_space_group_name_H-M 'P 1'
_symmetry_Int_Tables_number 1

loop_
_atom_site_label
_atom_site_type_symbol
_atom_site_fract_x
_atom_site_fract_y
_atom_site_fract_z
H1       H     0.274769620537194    0.323925268107551    0.241629707172368
H2       H     0.156526882984127    0.520524885778721    0.243317196972102
H3       H     0.211893696668406    0.291335450729900    0.439233637642775
H4       H     0.066559681366768   -0.019343113190763    0.388802990813421
H5       H     0.210561709549736    0.332211328842615   -0.141392985370586
H6       H     0.093801315623027    0.539594530703580   -0.152157671988614
H7       H     0.068897423972659    0.338924601037506   -0.367185318272959
H8       H     0.225230379462806    0.823925268107551   -0.241629707172368
H9       H     0.343473117015873    1.020524885778723   -0.243317196972102
H10      H     0.288106303331593    0.791335450729901   -0.439233637642775
H11      H     0.433440318633233    0.480656886809237   -0.388802990813421
H12      H     0.289438290450264    0.832211328842616    0.141392985370586
H13      H     0.406198684376973    1.039594530703579    0.152157671988614
H14      H     0.431102576027341    0.838924601037507    0.367185318272959
H15      H    -0.274769620537194   -0.323925268107551   -0.241629707172368
H16      H    -0.156526882984127   -0.520524885778721   -0.243317196972102
H17      H    -0.211893696668406   -0.291335450729900   -0.439233637642775
H18      H    -0.066559681366768    0.019343113190763   -0.388802990813421
H19      H    -0.210561709549736   -0.332211328842615    0.141392985370586
H20      H    -0.093801315623027   -0.539594530703580    0.152157671988614
H21      H    -0.068897423972659   -0.338924601037506    0.367185318272959
H22      H     0.774769620537194    0.176074731892449    0.241629707172368
H23      H     0.656526882984127   -0.020524885778722    0.243317196972102
H24      H     0.711893696668405    0.208664549270099    0.439233637642775
H25      H     0.566559681366768    0.519343113190763    0.388802990813421
H26      H     0.710561709549737    0.167788671157384   -0.141392985370586
H27      H     0.593801315623026   -0.039594530703580   -0.152157671988614
H28      H     0.568897423972659    0.161075398962494   -0.367185318272959
C1       C     0.188819689057229    0.332177764865877    0.271418139455805
C2       C     0.092238144924117    0.161248541888087    0.130131285322411
C3       C     0.036913240819299   -0.010355697657749    0.216614753827879
C4       C     0.054353206362684    0.171838807099784   -0.092156333681408
C5       C     0.109622725600831    0.354153787647266   -0.193861003479576
C6       C     0.311180310942771    0.832177764865877   -0.271418139455805
C7       C     0.407761855075883    0.661248541888087   -0.130131285322411
C8       C     0.463086759180701    0.489644302342251   -0.216614753827879
C9       C     0.445646793637316    0.671838807099784    0.092156333681408
C10      C     0.390377274399169    0.854153787647265    0.193861003479576
C11      C    -0.188819689057229   -0.332177764865877   -0.271418139455805
C12      C    -0.092238144924117   -0.161248541888087   -0.130131285322411
C13      C    -0.036913240819299    0.010355697657749   -0.216614753827879
C14      C    -0.054353206362684   -0.171838807099784    0.092156333681408
C15      C    -0.109622725600831   -0.354153787647266    0.193861003479576
C16      C     0.688819689057229    0.167822235134123    0.271418139455805
C17      C     0.592238144924117    0.338751458111913    0.130131285322411
C18      C     0.536913240819298    0.510355697657751    0.216614753827879
C19      C     0.554353206362684    0.328161192900216   -0.092156333681408
C20      C     0.609622725600830    0.145846212352734   -0.193861003479576
