data_cif

_audit_creation_method             'generated by GULP'

_symmetry_space_group_name_H-M     'P 1 21/A 1      '
_symmetry_Int_Tables_number        14
_symmetry_cell_setting             Monoclinic  

_cell_length_a                      11.216169
_cell_length_b                       5.669218
_cell_length_c                       6.835806
_cell_angle_alpha                   90.000000
_cell_angle_beta                   114.289803
_cell_angle_gamma                   90.000000

loop_
_atom_site_label
_atom_site_fract_x
_atom_site_fract_y
_atom_site_fract_z
_atom_site_occupancy
  C2          0.19221      0.33598      0.28515  1.0000
  C4          0.09239      0.16300      0.13516  1.0000
  C4          0.03330      0.99773      0.22042  1.0000
  C4          0.05843      0.16588      0.91236  1.0000
  C2          0.11880      0.34447      0.81283  1.0000
  H3          0.28347      0.33162      0.26263  1.0000
  H3          0.15444      0.51672      0.25541  1.0000
  H3          0.21672      0.29559      0.45408  1.0000
  H1          0.05918      0.99614      0.39168  1.0000
  H3          0.22249      0.30576      0.85767  1.0000
  H3          0.11177      0.52402      0.86666  1.0000
  H3          0.06928      0.34424      0.63716  1.0000
