data_image0
_chemical_formula_structural       C20H28
_chemical_formula_sum              "C20 H28"
_cell_length_a       11.57
_cell_length_b       5.77
_cell_length_c       7.03
_cell_angle_alpha    90.0
_cell_angle_beta     112.93
_cell_angle_gamma    90.0

_space_group_name_H-M_alt    "P 1"
_space_group_IT_number       1

loop_
  _space_group_symop_operation_xyz
  'x, y, z'

loop_
  _atom_site_type_symbol
  _atom_site_label
  _atom_site_symmetry_multiplicity
  _atom_site_fract_x
  _atom_site_fract_y
  _atom_site_fract_z
  _atom_site_occupancy
  C   C1        1.0  0.1880887940665938  0.3257521754821488  0.26350554237993995  1.0000
  C   C2        1.0  0.3119112440288429  0.8257521244090463  0.7364943953330196  1.0000
  C   C3        1.0  0.8119282775060405  0.674248075892148  0.7364024593891932  1.0000
  C   C4        1.0  0.688071754296228  0.17424801940657672  0.2635976682885054  1.0000
  C   C5        1.0  0.09148761892412825  0.15893706492445994  0.12607596852481098  1.0000
  C   C6        1.0  0.40851242902870416  0.6589370825428756  0.8739244681131243  1.0000
  C   C7        1.0  0.9085397524921  0.8410528708586851  0.8738271677405198  1.0000
  C   C8        1.0  0.5914601387849693  0.3410527784320397  0.1261724293345242  1.0000
  C   C9        1.0  0.03695057557110084  0.9927376925589436  0.2106979700268038  1.0000
  C   C10       1.0  0.46304935964785887  0.49273786758158383  0.789301613463142  1.0000
  C   C11       1.0  0.9630720773172847  0.007262073367994875  0.7892044570277713  1.0000
  C   C12       1.0  0.5369280930803308  0.5072620481732972  0.21079593503601363  1.0000
  C   C13       1.0  0.05347608938343017  0.16648072071033776  0.9095170179041485  1.0000
  C   C14       1.0  0.4465236832386914  0.6664808013986744  0.09048256855469267  1.0000
  C   C15       1.0  0.946530768470144  0.8335464430816205  0.09038567026893615  1.0000
  C   C16       1.0  0.5534692561759276  0.33354622369104664  0.9096147947419987  1.0000
  C   C17       1.0  0.10813569971167683  0.342105899456984  0.8095683456308931  1.0000
  C   C18       1.0  0.39186430184909715  0.8421059883642903  0.19043171222196556  1.0000
  C   C19       1.0  0.891876952138365  0.6578982075382118  0.19032655953536953  1.0000
  C   C20       1.0  0.6081230580405617  0.15789834830113156  0.8096733768024614  1.0000
  H   H1        1.0  0.27640561231353555  0.3156912365764568  0.2392116135895934  1.0000
  H   H2        1.0  0.22359443441047888  0.8156912335743953  0.7607883485973699  1.0000
  H   H3        1.0  0.7235999712189081  0.6844727220688613  0.7606504313971538  1.0000
  H   H4        1.0  0.7764000648748333  0.18447272046495086  0.23934950815351322  1.0000
  H   H5        1.0  0.1556057945909392  0.5065046989826913  0.23161658833312712  1.0000
  H   H6        1.0  0.34439417317623494  0.006504702703639786  0.7683833013648841  1.0000
  H   H7        1.0  0.8443441912074635  0.49346558380867034  0.7683820565523786  1.0000
  H   H8        1.0  0.6556557464091467  0.9934655524902913  0.23161784816549924  1.0000
  H   H9        1.0  0.20957195592449088  0.2909249458900874  0.42721595218388897  1.0000
  H   H10       1.0  0.29042808465496533  0.7909249675083192  0.572784120119568  1.0000
  H   H11       1.0  0.7904802763597477  0.7089882146901123  0.5726901098893248  1.0000
  H   H12       1.0  0.709519719197934  0.20898814169472957  0.427309941034089  1.0000
  H   H13       1.0  0.06672287722210705  0.9863274054683855  0.3785590940689506  1.0000
  H   H14       1.0  0.4332771101285706  0.4863274613690311  0.6214409650254948  1.0000
  H   H15       1.0  0.9333017672158687  0.013666116188795537  0.6213410902171892  1.0000
  H   H16       1.0  0.5666982115091866  0.5136661418553035  0.37865871619257757  1.0000
  H   H17       1.0  0.21056536172757315  0.32318027068547245  0.8614554260970775  1.0000
  H   H18       1.0  0.28943461181503904  0.8231801811085984  0.13854452896346242  1.0000
  H   H19       1.0  0.7894494435781565  0.6767852573954788  0.13848811542846776  1.0000
  H   H20       1.0  0.7105505288409267  0.17678522253361684  0.861511887392237  1.0000
  H   H21       1.0  0.09125682287924991  0.5203151808721256  0.8486755240923904  1.0000
  H   H22       1.0  0.4087431862909733  0.020315269780552373  0.15132446203460237  1.0000
  H   H23       1.0  0.908769665902828  0.4797111659557151  0.15118699070661798  1.0000
  H   H24       1.0  0.5912303395249969  0.9797111669294419  0.8488129740761523  1.0000
  H   H25       1.0  0.06686752071496388  0.3260032009288596  0.6406213431333044  1.0000
  H   H26       1.0  0.43313247944199534  0.8260032867249665  0.35937877895843645  1.0000
  H   H27       1.0  0.9331756348569165  0.6739427603529915  0.3592766489939877  1.0000
  H   H28       1.0  0.566824419874868  0.17394270565950015  0.6407234357336343  1.0000
