data_image0
_chemical_formula_structural       C20H28
_chemical_formula_sum              "C20 H28"
_cell_length_a       11.606297570026927
_cell_length_b       5.720293711017891
_cell_length_c       6.779710375613586
_cell_angle_alpha    89.84692068573906
_cell_angle_beta     109.53169111431843
_cell_angle_gamma    90.01214750371774

_space_group_name_H-M_alt    "P 1"
_space_group_IT_number       1

loop_
  _space_group_symop_operation_xyz
  'x, y, z'

loop_
  _atom_site_type_symbol
  _atom_site_label
  _atom_site_symmetry_multiplicity
  _atom_site_fract_x
  _atom_site_fract_y
  _atom_site_fract_z
  _atom_site_occupancy
  C   C1        1.0  0.18385121751477917  0.32408783601211183  0.2502551623620199  1.0000
  C   C2        1.0  0.31590877441673815  0.8224958956435822  0.7460539027334089  1.0000
  C   C3        1.0  0.8152896668974671  0.6762085634024086  0.7476958729305822  1.0000
  C   C4        1.0  0.6848313856800242  0.17721423794519925  0.2558264996641461  1.0000
  C   C5        1.0  0.08973069652656994  0.15759155197909783  0.11950630131704111  1.0000
  C   C6        1.0  0.4101922684589795  0.6567328508709682  0.878643348789118  1.0000
  C   C7        1.0  0.9094125723181562  0.8427293751578171  0.8785356395521319  1.0000
  C   C8        1.0  0.5905966745931281  0.3429605095045638  0.12298763167968028  1.0000
  C   C9        1.0  0.039281970336294235  0.9860924221501308  0.21306136221247038  1.0000
  C   C10       1.0  0.4611404730151752  0.4848645989229894  0.7868666361303843  1.0000
  C   C11       1.0  0.9598872345566278  0.014278320548545203  0.7850130610407463  1.0000
  C   C12       1.0  0.5396497736607966  0.5147795667170588  0.21478577721716238  1.0000
  C   C13       1.0  0.048977656750013185  0.17195872847135135  0.8996146827739703  1.0000
  C   C14       1.0  0.45050816462589016  0.6720722472463471  0.09840667274475093  1.0000
  C   C15       1.0  0.9502127508879302  0.8283385363850284  0.09844957084247391  1.0000
  C   C16       1.0  0.5502938290089836  0.3275942841373162  0.9032292242813388  1.0000
  C   C17       1.0  0.09900659398152764  0.3534355925297107  0.7908448970156977  1.0000
  C   C18       1.0  0.3999443153654092  0.8539751131296744  0.20530062991632603  1.0000
  C   C19       1.0  0.9002677861825624  0.646886771783471  0.2074524304333927  1.0000
  C   C20       1.0  0.6009227488509056  0.1456353306433987  0.7965091935154894  1.0000
  H   H1        1.0  0.2675071228214711  0.32358913254349625  0.2069608359439513  1.0000
  H   H2        1.0  0.23307467215578082  0.8249069151735806  0.7916595109280798  1.0000
  H   H3        1.0  0.7325387100573691  0.6735653911434806  0.7935777529593714  1.0000
  H   H4        1.0  0.767971706554603  0.17474140666628415  0.21103582826002343  1.0000
  H   H5        1.0  0.149317909491444  0.5058221688968928  0.22913208744385924  1.0000
  H   H6        1.0  0.35078203716719486  0.003890575353234782  0.7629683785514157  1.0000
  H   H7        1.0  0.8505944000548633  0.49499312451657224  0.7659846004126343  1.0000
  H   H8        1.0  0.6499106674658613  0.9958323832742798  0.23885929483024393  1.0000
  H   H9        1.0  0.21013802143729143  0.28105286010441943  0.417916783090069  1.0000
  H   H10       1.0  0.2882898575400886  0.7762247607079086  0.5791548146661529  1.0000
  H   H11       1.0  0.7874081225452323  0.7217163213352407  0.580359248250193  1.0000
  H   H12       1.0  0.712052952726703  0.22360883952519764  0.4226906733365671  1.0000
  H   H13       1.0  0.07115411850304604  0.97445391631266  0.38459279922546985  1.0000
  H   H14       1.0  0.42952152546669053  0.47268078068950287  0.615430911775091  1.0000
  H   H15       1.0  0.9279648458451284  0.026021561503488787  0.6134914297054823  1.0000
  H   H16       1.0  0.5711986009050534  0.5272017357042712  0.38620263589852094  1.0000
  H   H17       1.0  0.1993018128876407  0.3399589253115026  0.8325744541294949  1.0000
  H   H18       1.0  0.29975343489670564  0.8391402025666131  0.16442805276463862  1.0000
  H   H19       1.0  0.7998935700426293  0.6594202932703563  0.16497285775796072  1.0000
  H   H20       1.0  0.7009894380540376  0.16176291787183372  0.836078509797905  1.0000
  H   H21       1.0  0.08006473617190085  0.5318450011086063  0.8344138941908382  1.0000
  H   H22       1.0  0.417915334649922  0.03223462832959884  0.15924164790979825  1.0000
  H   H23       1.0  0.9198034675627589  0.4683554864499041  0.1649461081467864  1.0000
  H   H24       1.0  0.5839443472501618  0.9674864035292132  0.8441624433121521  1.0000
  H   H25       1.0  0.058447029344231474  0.3385504979765116  0.6195122182657163  1.0000
  H   H26       1.0  0.44086121325067745  0.8407623406466592  0.3767711461522175  1.0000
  H   H27       1.0  0.940421310716209  0.6629488253371906  0.37875277507340405  1.0000
  H   H28       1.0  0.5592703985346494  0.15729513369616938  0.6250572369655382  1.0000
