data_image0
_chemical_formula_structural       C24H24
_chemical_formula_sum              "C24 H24"
_cell_length_a       7.44
_cell_length_b       9.55
_cell_length_c       6.92
_cell_angle_alpha    90.0
_cell_angle_beta     90.0
_cell_angle_gamma    90.0

_space_group_name_H-M_alt    "P 1"
_space_group_IT_number       1

loop_
  _space_group_symop_operation_xyz
  'x, y, z'

loop_
  _atom_site_type_symbol
  _atom_site_label
  _atom_site_symmetry_multiplicity
  _atom_site_fract_x
  _atom_site_fract_y
  _atom_site_fract_z
  _atom_site_occupancy
  C   C1        1.0  0.9402773369923672  0.1387880453998343  0.9948620825081442  1.0000
  C   C2        1.0  0.5598386859398894  0.6388622849577948  0.9948007128192863  1.0000
  C   C3        1.0  0.9401611266398405  0.36113753362666  0.49480026752213724  1.0000
  C   C4        1.0  0.5597218932430394  0.8612118965537854  0.4948615081084816  1.0000
  C   C5        1.0  0.059839143375017244  0.8611375399938491  0.005199017157355504  1.0000
  C   C6        1.0  0.44027746150274194  0.36121174938378114  0.0051382335256281155  1.0000
  C   C7        1.0  0.05972234326150696  0.6387878333826257  0.5051385884393014  1.0000
  C   C8        1.0  0.4401615702767479  0.13886241077877398  0.505199715067241  1.0000
  C   C9        1.0  0.8648785272954449  0.044546365224435926  0.1266493704770037  1.0000
  C   C10       1.0  0.6352547241578119  0.5446158315661183  0.12657415620751925  1.0000
  C   C11       1.0  0.864745298345065  0.45538375615845716  0.6265742107305767  1.0000
  C   C12       1.0  0.6351217990996151  0.9554530305395688  0.6266495300150575  1.0000
  C   C13       1.0  0.13525469153714648  0.955384109181012  0.8734262962849879  1.0000
  C   C14       1.0  0.3648777885383597  0.45545368893125937  0.8733503170233439  1.0000
  C   C15       1.0  0.1351220066038264  0.5445464606759525  0.3733501754184361  1.0000
  C   C16       1.0  0.3647450093559007  0.04461658676590105  0.37342641241553415  1.0000
  C   C17       1.0  0.07508826991001906  0.09405906977718952  0.8682675440960981  1.0000
  C   C18       1.0  0.4250152231853727  0.5941414579376096  0.8682232845873331  1.0000
  C   C19       1.0  0.07498460456798998  0.4058584377290866  0.36822314921627536  1.0000
  C   C20       1.0  0.4249117046845483  0.9059409075800826  0.3682676011051144  1.0000
  C   C21       1.0  0.925014871777447  0.9058587464505453  0.13177696174237402  1.0000
  C   C22       1.0  0.5750876683772065  0.40594062256215696  0.1317322113632056  1.0000
  C   C23       1.0  0.9249117776373692  0.5940593747173825  0.6317317566098382  1.0000
  C   C24       1.0  0.5749848833696561  0.09414122508659167  0.6317774086611048  1.0000
  H   H1        1.0  0.8939075451240179  0.24714098895402192  0.9905192212854786  1.0000
  H   H2        1.0  0.6062068910702145  0.747214326640614  0.9904846511977999  1.0000
  H   H3        1.0  0.893792803014901  0.25278524439087663  0.4904847150196191  1.0000
  H   H4        1.0  0.606092688433125  0.7528589489264423  0.49051902758705207  1.0000
  H   H5        1.0  0.10620666103380692  0.7527854241569805  0.00951562551202029  1.0000
  H   H6        1.0  0.39390778760743433  0.2528584421895649  0.009480849649678408  1.0000
  H   H7        1.0  0.10609230779431188  0.7471410546049208  0.5094809752905065  1.0000
  H   H8        1.0  0.39379281269556454  0.24721457172729408  0.5095149556152863  1.0000
  H   H9        1.0  0.7588161765444768  0.07817744134962289  0.22515644767032708  1.0000
  H   H10       1.0  0.7413220421636981  0.5782480629746646  0.2250733925407576  1.0000
  H   H11       1.0  0.7586782053386597  0.42175247727537846  0.7250740873518635  1.0000
  H   H12       1.0  0.741183840631679  0.9218226645391787  0.7251565722050659  1.0000
  H   H13       1.0  0.2413218901648851  0.9217520029484161  0.774926065326931  1.0000
  H   H14       1.0  0.25881601327818643  0.42182271528155474  0.7748434725850265  1.0000
  H   H15       1.0  0.24118386918796375  0.5781776856443759  0.274843751749209  1.0000
  H   H16       1.0  0.2586785652895246  0.07824768264217018  0.2749255372522926  1.0000
  H   H17       1.0  0.1329286303724979  0.16699030015019728  0.7642623745728412  1.0000
  H   H18       1.0  0.3671175292432275  0.6670881133649552  0.7642741573611168  1.0000
  H   H19       1.0  0.13288317237842262  0.3329121916689134  0.2642741602909516  1.0000
  H   H20       1.0  0.3670717214080117  0.833009700125032  0.2642622186674434  1.0000
  H   H21       1.0  0.8671169356035667  0.8329124478011445  0.23572561120671903  1.0000
  H   H22       1.0  0.6329289631924802  0.33301004919786015  0.23573823435804478  1.0000
  H   H23       1.0  0.8670716317118395  0.6669902653600964  0.7357379459720279  1.0000
  H   H24       1.0  0.632882983333531  0.16708814917748757  0.7357254132120883  1.0000
