data_cif

_audit_creation_method             'generated by GULP'

_symmetry_space_group_name_H-M     'P B C A         '
_symmetry_Int_Tables_number        61
_symmetry_cell_setting             Orthorhombic

_cell_length_a                       7.462411
_cell_length_b                       9.186196
_cell_length_c                       6.584802
_cell_angle_alpha                   90.000000
_cell_angle_beta                    90.000000
_cell_angle_gamma                   90.000000

loop_
_atom_site_label
_atom_site_fract_x
_atom_site_fract_y
_atom_site_fract_z
_atom_site_occupancy
  C2          0.93641      0.14379      0.99337  1.0000
  C2          0.86011      0.04350      0.12904  1.0000
  C2          0.07582      0.10001      0.86403  1.0000
  H1          0.88782      0.25524      0.98823  1.0000
  H1          0.75124      0.07637      0.22854  1.0000
  H1          0.13452      0.17722      0.75848  1.0000
