# CIF file generated from CASTEP cell file
# https://gist.github.com/blake-armstrong/93facdde07a6e0a1ddb51857dd48e3f1
# Structure converted from CASTEP

data_structure

_cell_length_a    7.346907278440900
_cell_length_b    9.367225661988011
_cell_length_c    6.775438607453030
_cell_angle_alpha 90.000000000000000
_cell_angle_beta  90.000000000000000
_cell_angle_gamma 90.000000000000000

_symmetry_space_group_name_H-M 'P 1'
_symmetry_Int_Tables_number 1

loop_
_atom_site_label
_atom_site_type_symbol
_atom_site_fract_x
_atom_site_fract_y
_atom_site_fract_z
H1       H     0.888804994657332    0.250659901854771    0.988713361602347
H2       H     0.611195005342667    0.750659901854771    0.988713361602347
H3       H     0.888804994657332    0.249340098145229    0.488713361602348
H4       H     0.611195005342667    0.749340098145229    0.488713361602348
H5       H     0.111195005342667    0.749340098145229    0.011286638397652
H6       H     0.388804994657332    0.249340098145229    0.011286638397652
H7       H     0.111195005342667    0.750659901854771    0.511286638397653
H8       H     0.388804994657332    0.250659901854771    0.511286638397653
H9       H     0.752806541178485    0.077476343487927    0.227193279375798
H10      H     0.747193458821515    0.577476343487928    0.227193279375798
H11      H     0.752806541178485    0.422523656512073    0.727193279375798
H12      H     0.747193458821515    0.922523656512072    0.727193279375798
H13      H     0.247193458821514    0.922523656512072    0.772806720624202
H14      H     0.252806541178486    0.422523656512073    0.772806720624202
H15      H     0.247193458821514    0.577476343487928    0.272806720624202
H16      H     0.252806541178486    0.077476343487927    0.272806720624202
H17      H     0.133495777771104    0.171066655973426    0.760309194562922
H18      H     0.366504222228896    0.671066655973427    0.760309194562922
H19      H     0.133495777771104    0.328933344026574    0.260309194562922
H20      H     0.366504222228896    0.828933344026573    0.260309194562922
H21      H     0.866504222228896    0.828933344026573    0.239690805437078
H22      H     0.633495777771104    0.328933344026574    0.239690805437078
H23      H     0.866504222228896    0.671066655973427    0.739690805437078
H24      H     0.633495777771104    0.171066655973426    0.739690805437078
C1       C     0.937317188068265    0.140841121058288    0.993838137953645
C2       C     0.562682811931735    0.640841121058288    0.993838137953645
C3       C     0.937317188068265    0.359158878941712    0.493838137953645
C4       C     0.562682811931735    0.859158878941711    0.493838137953645
C5       C     0.062682811931735    0.859158878941711    0.006161862046355
C6       C     0.437317188068265    0.359158878941712    0.006161862046355
C7       C     0.062682811931735    0.640841121058288    0.506161862046355
C8       C     0.437317188068265    0.140841121058288    0.506161862046355
C9       C     0.861433316774636    0.044269138972979    0.127891411302416
C10      C     0.638566683225364    0.544269138972979    0.127891411302416
C11      C     0.861433316774636    0.455730861027021    0.627891411302415
C12      C     0.638566683225364    0.955730861027021    0.627891411302415
C13      C     0.138566683225364    0.955730861027021    0.872108588697585
C14      C     0.361433316774636    0.455730861027021    0.872108588697585
C15      C     0.138566683225364    0.544269138972979    0.372108588697584
C16      C     0.361433316774636    0.044269138972979    0.372108588697584
C17      C     0.075439130058780    0.096405244797331    0.865980406801064
C18      C     0.424560869941220    0.596405244797331    0.865980406801064
C19      C     0.075439130058780    0.403594755202669    0.365980406801064
C20      C     0.424560869941220    0.903594755202669    0.365980406801064
C21      C     0.924560869941220    0.903594755202669    0.134019593198936
C22      C     0.575439130058780    0.403594755202669    0.134019593198936
C23      C     0.924560869941220    0.596405244797331    0.634019593198936
C24      C     0.575439130058780    0.096405244797331    0.634019593198936
