data_image0
_chemical_formula_structural       C24H24
_chemical_formula_sum              "C24 H24"
_cell_length_a       7.4180394844226845
_cell_length_b       9.903089858819238
_cell_length_c       6.961885091880962
_cell_angle_alpha    90.06611119015197
_cell_angle_beta     89.86963668951005
_cell_angle_gamma    90.08456405473241

_space_group_name_H-M_alt    "P 1"
_space_group_IT_number       1

loop_
  _space_group_symop_operation_xyz
  'x, y, z'

loop_
  _atom_site_type_symbol
  _atom_site_label
  _atom_site_symmetry_multiplicity
  _atom_site_fract_x
  _atom_site_fract_y
  _atom_site_fract_z
  _atom_site_occupancy
  C   C1        1.0  0.9419678685085519  0.13394130532420262  0.0017669263748791852  1.0000
  C   C2        1.0  0.5586308347716052  0.6336768633584885  0.0018086267560830649  1.0000
  C   C3        1.0  0.9396374948740193  0.3662118576911879  0.5023789502709974  1.0000
  C   C4        1.0  0.5588522353764177  0.8660688622659909  0.5011346380563824  1.0000
  C   C5        1.0  0.05956356457955282  0.8665124250306514  0.9981920492704671  1.0000
  C   C6        1.0  0.43996477175354537  0.3662549287636985  0.9979122314216182  1.0000
  C   C7        1.0  0.058687120619109495  0.6335177263879715  0.4976157732971335  1.0000
  C   C8        1.0  0.4426454760128881  0.1338329661816394  0.4987593621220399  1.0000
  C   C9        1.0  0.8666764853856953  0.04070668955200419  0.12900384097680617  1.0000
  C   C10       1.0  0.6339479582392256  0.540144002094063  0.12798229445125323  1.0000
  C   C11       1.0  0.8642821789069678  0.4601116635262346  0.628647032936915  1.0000
  C   C12       1.0  0.6348056450191004  0.9591830067194891  0.6280492065855741  1.0000
  C   C13       1.0  0.13508788463908322  0.9597927126252589  0.8711578322782346  1.0000
  C   C14       1.0  0.36450967388577515  0.45981579104149184  0.8718852290006538  1.0000
  C   C15       1.0  0.13410443092713847  0.5396178177286697  0.3714024150839575  1.0000
  C   C16       1.0  0.3665792112208736  0.040691680876955384  0.37196109748697914  1.0000
  C   C17       1.0  0.07590605545418265  0.09341403407549408  0.8730674495342716  1.0000
  C   C18       1.0  0.4241272231180487  0.5934472728288799  0.8740510516908684  1.0000
  C   C19       1.0  0.07426299330648643  0.40603220644347554  0.3739907561329238  1.0000
  C   C20       1.0  0.4250169391171667  0.906883361690013  0.3732919654228489  1.0000
  C   C21       1.0  0.9257308454609565  0.9070662929882174  0.12697441902503603  1.0000
  C   C22       1.0  0.5742720922840587  0.4065179319054079  0.12586254053795837  1.0000
  C   C23       1.0  0.9241547939500665  0.5936796387391462  0.6261023964935278  1.0000
  C   C24       1.0  0.5764064419049257  0.09298514995324432  0.6266778767151939  1.0000
  H   H1        1.0  0.8957928437519872  0.23898183998269293  0.0027798180803426664  1.0000
  H   H2        1.0  0.6052441371040513  0.7387027399443927  0.002984326423930206  1.0000
  H   H3        1.0  0.8930182141533941  0.26118581053913653  0.5039553862726278  1.0000
  H   H4        1.0  0.6044527566832916  0.7608912050457405  0.501819991132837  1.0000
  H   H5        1.0  0.10561095151441896  0.7614396960678321  0.9970965966162626  1.0000
  H   H6        1.0  0.3936642644056423  0.2611512791881924  0.996630857007654  1.0000
  H   H7        1.0  0.1053102735907816  0.7385428061287593  0.4961106822539442  1.0000
  H   H8        1.0  0.3971433178576915  0.23903486383065262  0.4982719480683358  1.0000
  H   H9        1.0  0.7608021487810694  0.07128674789541647  0.22998635092648725  1.0000
  H   H10       1.0  0.7402802756041857  0.5705127611819844  0.22818384607900594  1.0000
  H   H11       1.0  0.7578126558999947  0.43007654249916444  0.7293029715732626  1.0000
  H   H12       1.0  0.7406883227822096  0.9283512968317621  0.728251767398841  1.0000
  H   H13       1.0  0.24119385711313718  0.9291636419230227  0.7704624689543338  1.0000
  H   H14       1.0  0.2581423839416515  0.42944551675090237  0.7717377379212346  1.0000
  H   H15       1.0  0.24068589848304095  0.5696183470397678  0.27084475830063104  1.0000
  H   H16       1.0  0.2605821886951461  0.07146360886082664  0.2718700087774599  1.0000
  H   H17       1.0  0.1341483379847964  0.16620928073800767  0.7721867092784067  1.0000
  H   H18       1.0  0.36586393623781127  0.666488309650914  0.774014273218344  1.0000
  H   H19       1.0  0.13251242334853838  0.3327402705246443  0.2737884341007553  1.0000
  H   H20       1.0  0.36626472292810913  0.8341961279304747  0.27263799514993614  1.0000
  H   H21       1.0  0.8674104019965684  0.8342465982871623  0.22775056454820622  1.0000
  H   H22       1.0  0.6324268585261086  0.3335081691240864  0.22601449646144103  1.0000
  H   H23       1.0  0.865974658506399  0.6670235720914234  0.7262530634747506  1.0000
  H   H24       1.0  0.6351557603846631  0.16563773172607096  0.7273862579702813  1.0000
