data_C3H3
_audit_creation_method 'chmpy python library version 1.0a1'
_cell_length_a 7.112237
_cell_length_b 9.325946
_cell_length_c 6.453031
_cell_angle_alpha 90.0
_cell_angle_beta 90.0
_cell_angle_gamma 90.0
loop_
_symmetry_equiv_pos_site_id
_symmetry_equiv_pos_as_xyz
                   1 -x,-y,-z
                   2 +x,+y,+z
                   3 -x,1/2+y,1/2-z
                   4 +x,1/2-y,1/2+z
                   5 1/2-x,-y,1/2+z
                   6 1/2+x,+y,1/2-z
                   7 1/2-x,1/2+y,+z
                   8 1/2+x,1/2-y,-z
loop_
_atom_site_label
_atom_site_type_symbol
_atom_site_fract_x
_atom_site_fract_y
_atom_site_fract_z
_atom_site_occupancy
C C       0.939177000000       0.143480000000       0.997986000000       1.000000000000
C C       0.858418000000       0.045300000000       0.137105000000       1.000000000000
C C       0.080258000000       0.097910000000       0.860569000000       1.000000000000
H H       0.892114000000       0.255170000000       0.995981000000       1.000000000000
H H       0.746559000000       0.079488000000       0.242363000000       1.000000000000
H H       0.141527000000       0.173651000000       0.750322000000       1.000000000000
#END