data_BENZEN.b3lyp.6-311G**.dma4.-47.5438.1.0732
_audit_creation_method 'generated by cspy2.0'
_cell_length_a 7.7187
_cell_length_b 8.8084
_cell_length_c 7.1107
_cell_angle_alpha 90.0607
_cell_angle_beta 90.0412
_cell_angle_gamma 90.037
loop_
_symmetry_equiv_pos_site_id
_symmetry_equiv_pos_as_xyz
1 +x,+y,+z
loop_
_atom_site_label
_atom_site_type_symbol
_atom_site_fract_x
_atom_site_fract_y
_atom_site_fract_z
_atom_site_occupancy
C1 C       0.926657570000       0.143034500000       0.977297030000       1.000000000000
C2 C       1.073342430000      -0.143034500000       1.022702970000       1.000000000000
C3 C       0.862747240000       0.045159090000       1.114498620000       1.000000000000
C4 C       1.137252760000      -0.045159090000       0.885501380000       1.000000000000
C5 C       1.064647080000       0.097893230000       0.865066750000       1.000000000000
C6 C       0.935352920000      -0.097893230000       1.134933250000       1.000000000000
C7 C       0.073599730000       0.643091440000       0.522345050000       1.000000000000
C8 C      -0.073599730000       0.356908560000       0.477654950000       1.000000000000
C9 C       0.137374170000       0.544721620000       0.385433900000       1.000000000000
C10 C      -0.137374170000       0.455278380000       0.614566100000       1.000000000000
C11 C      -0.064510430000       0.598379990000       0.634642490000       1.000000000000
C12 C       0.064510430000       0.401620010000       0.365357510000       1.000000000000
C13 C       0.573586810000       0.857056300000       0.477091790000       1.000000000000
C14 C       0.426413190000       1.142943700000       0.522908210000       1.000000000000
C15 C       0.637475100000       0.955123970000       0.614451880000       1.000000000000
C16 C       0.362524900000       1.044876030000       0.385548120000       1.000000000000
C17 C       0.435377680000       0.901915080000       0.364908100000       1.000000000000
C18 C       0.564622320000       1.098084920000       0.635091900000       1.000000000000
C19 C       0.574297820000       0.642650470000       0.976576250000       1.000000000000
C20 C       0.425702180000       0.357349530000       1.023423750000       1.000000000000
C21 C       0.638420910000       0.544594870000       1.113483620000       1.000000000000
C22 C       0.361579090000       0.455405130000       0.886516380000       1.000000000000
C23 C       0.435156550000       0.598079190000       0.865365920000       1.000000000000
C24 C       0.564843450000       0.401920810000       1.134634080000       1.000000000000
H1 H       0.873474990000       0.252059580000       0.952078770000       1.000000000000
H2 H       1.126525010000      -0.252059580000       1.047921230000       1.000000000000
H3 H       0.752976950000       0.077192560000       1.200943080000       1.000000000000
H4 H       1.247023050000      -0.077192560000       0.799056920000       1.000000000000
H5 H       1.114657510000       0.172475520000       0.759319940000       1.000000000000
H6 H       0.885342490000      -0.172475520000       1.240680060000       1.000000000000
H7 H       0.126975820000       0.752188190000       0.547289350000       1.000000000000
H8 H      -0.126975820000       0.247811810000       0.452710650000       1.000000000000
H9 H       0.247232350000       0.576423010000       0.298946460000       1.000000000000
H10 H      -0.247232350000       0.423576990000       0.701053540000       1.000000000000
H11 H      -0.114417720000       0.673343570000       0.740167460000       1.000000000000
H12 H       0.114417720000       0.326656430000       0.259832540000       1.000000000000
H13 H       0.626946220000       0.748090750000       0.451716660000       1.000000000000
H14 H       0.373053780000       1.251909250000       0.548283340000       1.000000000000
H15 H       0.747409370000       0.923313190000       0.700865160000       1.000000000000
H16 H       0.252590630000       1.076686810000       0.299134840000       1.000000000000
H17 H       0.385382610000       0.827183520000       0.259040300000       1.000000000000
H18 H       0.614617390000       1.172816480000       0.740959700000       1.000000000000
H19 H       0.628152040000       0.751388600000       0.950827480000       1.000000000000
H20 H       0.371847960000       0.248611400000       1.049172520000       1.000000000000
H21 H       0.749056740000       0.576172270000       1.199122660000       1.000000000000
H22 H       0.250943260000       0.423827730000       0.800877340000       1.000000000000
H23 H       0.384975470000       0.672804050000       0.759852340000       1.000000000000
H24 H       0.615024530000       0.327195950000       1.240147660000       1.000000000000
#END