data_cif

_audit_creation_method             'generated by GULP'

_symmetry_space_group_name_H-M     'P B N 21        '
_symmetry_Int_Tables_number        33
_symmetry_cell_setting             Orthorhombic

_cell_length_a                      13.706891
_cell_length_b                      14.786187
_cell_length_c                       3.498846
_cell_angle_alpha                   90.000000
_cell_angle_beta                    90.000000
_cell_angle_gamma                   90.000000

loop_
_atom_site_label
_atom_site_fract_x
_atom_site_fract_y
_atom_site_fract_z
_atom_site_occupancy
  C2          0.13414      0.35587      0.97020  1.0000
  C2          0.17391      0.44014      0.86429  1.0000
  C2          0.27593      0.45285      0.85340  1.0000
  C2          0.33819      0.38051      0.95077  1.0000
  C2          0.29840      0.29676      0.05705  1.0000
  C2          0.19711      0.28444      0.06875  1.0000
  H1          0.12561      0.49563      0.79014  1.0000
  H1          0.41706      0.38857      0.94315  1.0000
  H1          0.34605      0.24077      0.13020  1.0000
  H1          0.16794      0.21911      0.15317  1.0000
  N4          0.02655      0.34200      0.97521  1.0000
  N4          0.31715      0.54187      0.73548  1.0000
  O3          0.99551      0.26887      0.08777  1.0000
  O3          0.97442      0.40227      0.84713  1.0000
  O3          0.26013      0.60030      0.62535  1.0000
  O3          0.40567      0.55318      0.75945  1.0000
