data_image0
_chemical_formula_structural       C24H16N8O16
_chemical_formula_sum              "C24 H16 N8 O16"
_cell_length_a       13.213391240892147
_cell_length_b       12.714984598163054
_cell_length_c       4.715154252844449
_cell_angle_alpha    90.28830305358751
_cell_angle_beta     90.81558467952578
_cell_angle_gamma    89.91502153957877

_space_group_name_H-M_alt    "P 1"
_space_group_IT_number       1

loop_
  _space_group_symop_operation_xyz
  'x, y, z'

loop_
  _atom_site_type_symbol
  _atom_site_label
  _atom_site_symmetry_multiplicity
  _atom_site_fract_x
  _atom_site_fract_y
  _atom_site_fract_z
  _atom_site_occupancy
  C   C1        1.0  0.13367773054389737  0.3763252969872985  0.9517620179166159  1.0000
  C   C2        1.0  0.3650659215890318  0.8734940341392193  0.9583072660156636  1.0000
  C   C3        1.0  0.6357093701306572  0.1241389315339941  0.46738685462375923  1.0000
  C   C4        1.0  0.8636138432963335  0.6285360575229983  0.4491008240576212  1.0000
  C   C5        1.0  0.18434184824060212  0.4548868947933116  0.8085974609518087  1.0000
  C   C6        1.0  0.3166070178273621  0.9537674728900988  0.8111872410402401  1.0000
  C   C7        1.0  0.685130705502636  0.04423777654468969  0.322451421031264  1.0000
  C   C8        1.0  0.815559763308182  0.5484589333128782  0.2981366502215507  1.0000
  C   C9        1.0  0.28841978353605086  0.45947376698348147  0.8486397613050415  1.0000
  C   C10       1.0  0.21277211531243992  0.962095147634306  0.8445515182897696  1.0000
  C   C11       1.0  0.7895501734932555  0.03938013345330231  0.354695807995704  1.0000
  C   C12       1.0  0.7121826276860899  0.5378731276710975  0.33624303835879227  1.0000
  C   C13       1.0  0.3414779080087504  0.3892493395017909  0.021666284205748232  1.0000
  C   C14       1.0  0.1575291587000314  0.8944376973088282  0.01442401066493515  1.0000
  C   C15       1.0  0.8443813871999397  0.11097156513035537  0.5209578243923474  1.0000
  C   C16       1.0  0.6567922725109622  0.6039398571553125  0.5127386259239701  1.0000
  C   C17       1.0  0.28796482207364155  0.3109449256983517  0.16009109705852687  1.0000
  C   C18       1.0  0.20883300319744783  0.8139340449137744  0.15510069269457352  1.0000
  C   C19       1.0  0.7919499766282891  0.19064555268213462  0.6600097274887875  1.0000
  C   C20       1.0  0.7075836439941778  0.6844812759240976  0.6573859223448268  1.0000
  C   C21       1.0  0.18337852638049829  0.303946465874697  0.12573759924153574  1.0000
  C   C22       1.0  0.31305972910818614  0.802880606250579  0.12792487696843835  1.0000
  C   C23       1.0  0.6870605465948706  0.19778941485068455  0.6352275864550503  1.0000
  C   C24       1.0  0.8115681758783364  0.6970540585158672  0.6270061932719796  1.0000
  H   H1        1.0  0.143838497245992  0.5105911753411989  0.6721869667928188  1.0000
  H   H2        1.0  0.3583084101648867  0.008512341965069004  0.6782117861879181  1.0000
  H   H3        1.0  0.6435749460845759  0.987032555484799  0.19162431096834037  1.0000
  H   H4        1.0  0.8569656511032568  0.4953039426776794  0.15829763593990037  1.0000
  H   H5        1.0  0.4235550649391628  0.3963680345410178  0.0482594786599035  1.0000
  H   H6        1.0  0.07579133676146568  0.905488755128269  0.035034482056613914  1.0000
  H   H7        1.0  0.9267179284069432  0.10366699478924402  0.5423779842672486  1.0000
  H   H8        1.0  0.5753482954308243  0.5916098068713843  0.5354451362903203  1.0000
  H   H9        1.0  0.32808978693086777  0.25450404388009357  0.2958337629706567  1.0000
  H   H10       1.0  0.16722435530144705  0.7590396166140727  0.28794621369707996  1.0000
  H   H11       1.0  0.8334821484981291  0.24726967599092445  0.7928854226807399  1.0000
  H   H12       1.0  0.6659274092268154  0.7381500648511055  0.7961193888301091  1.0000
  H   H13       1.0  0.14037883929126566  0.2424551798084078  0.2311117977020588  1.0000
  H   H14       1.0  0.35365391934876295  0.7398624568646427  0.23782461989961678  1.0000
  H   H15       1.0  0.6456509109139243  0.2601881873572908  0.7448790618565376  1.0000
  H   H16       1.0  0.8521935973537  0.7596127247890905  0.7409969866408945  1.0000
  N   N1        1.0  0.023372922696220082  0.36981037818453866  0.9160318656185529  1.0000
  N   N2        1.0  0.47493424040025917  0.8624172645863626  0.9309426919827265  1.0000
  N   N3        1.0  0.5251193211691061  0.13090902199894927  0.4410328089332169  1.0000
  N   N4        1.0  0.973440507951775  0.6400577158986415  0.41887322991417314  1.0000
  N   N5        1.0  0.34411150878449187  0.5420988449889165  0.7009993141761386  1.0000
  N   N6        1.0  0.1591639202253005  0.04670460799377621  0.6949063023843566  1.0000
  N   N7        1.0  0.8439657076245948  0.9549224471997941  0.20758409434305852  1.0000
  N   N8        1.0  0.6599024459026824  0.45262381236538957  0.18329702574225334  1.0000
  O   O1        1.0  0.9783646928813191  0.30460161062754865  0.058362453912509854  1.0000
  O   O2        1.0  0.5177880166843766  0.7946239157961661  0.07336040257615162  1.0000
  O   O3        1.0  0.48123712736843666  0.19456458214287242  0.5932761083300019  1.0000
  O   O4        1.0  0.016472937959436766  0.7066401013286057  0.5668758509164398  1.0000
  O   O5        1.0  0.9823736050015418  0.4301292855987391  0.7470032319451729  1.0000
  O   O6        1.0  0.5176451759407389  0.9222030772023133  0.7673036515858169  1.0000
  O   O7        1.0  0.4829820851043394  0.0721687787544281  0.26890949035079914  1.0000
  O   O8        1.0  0.015936815823026244  0.5819964907278011  0.24866426076970727  1.0000
  O   O9        1.0  0.29801730737501764  0.593024496599995  0.519737753452303  1.0000
  O   O10       1.0  0.20445694968002373  0.09288818390309843  0.5069795388588568  1.0000
  O   O11       1.0  0.7954270049881206  0.8983764679666715  0.04316305095677579  1.0000
  O   O12       1.0  0.7056128437421745  0.4092054560352347  0.9894198105900192  1.0000
  O   O13       1.0  0.4333569815959557  0.5554888791512075  0.7680606709372869  1.0000
  O   O14       1.0  0.07218941833349625  0.06649492555706388  0.7673992050087282  1.0000
  O   O15       1.0  0.9350290933339127  0.945932925248632  0.25786885011262106  1.0000
  O   O16       1.0  0.5741142795141928  0.42951821457800504  0.25848966596465756  1.0000
