data_image0
_chemical_formula_structural       C24H16N8O16
_chemical_formula_sum              "C24 H16 N8 O16"
_cell_length_a       13.257
_cell_length_b       14.048
_cell_length_c       3.806
_cell_angle_alpha    90.0
_cell_angle_beta     90.0
_cell_angle_gamma    90.0

_space_group_name_H-M_alt    "P 1"
_space_group_IT_number       1

loop_
  _space_group_symop_operation_xyz
  'x, y, z'

loop_
  _atom_site_type_symbol
  _atom_site_label
  _atom_site_symmetry_multiplicity
  _atom_site_fract_x
  _atom_site_fract_y
  _atom_site_fract_z
  _atom_site_occupancy
  C   C1        1.0  0.13861065811381132  0.3647281845558706  0.9502560078927548  1.0000
  C   C2        1.0  0.3614810101055751  0.8649539873523302  0.9502690523888286  1.0000
  C   C3        1.0  0.6385189264841571  0.13504606850540873  0.45026924210904107  1.0000
  C   C4        1.0  0.8613893754304209  0.63527177406539  0.4502562629711897  1.0000
  C   C5        1.0  0.1812089053218275  0.4489886360807713  0.8283085513728959  1.0000
  C   C6        1.0  0.318871283091402  0.9492210002291566  0.8284111559430601  1.0000
  C   C7        1.0  0.681128942289226  0.050778891754233925  0.32840994776146265  1.0000
  C   C8        1.0  0.8187913086287701  0.5510115268859682  0.3283078591258105  1.0000
  C   C9        1.0  0.28545684376319236  0.45749158092334147  0.8597409059281741  1.0000
  C   C10       1.0  0.21463076537449344  0.9577279162104753  0.8599565771630692  1.0000
  C   C11       1.0  0.7853689719622702  0.0422719566973676  0.3599570609686084  1.0000
  C   C12       1.0  0.7145429849247515  0.5425085195856396  0.35974139422514995  1.0000
  C   C13       1.0  0.346299429314741  0.38532099290232863  0.9973881264176647  1.0000
  C   C14       1.0  0.1538348040308591  0.8855666546604171  0.9979012157635168  1.0000
  C   C15       1.0  0.8461655473181886  0.11443330771105234  0.49790091351140664  1.0000
  C   C16       1.0  0.6537006928885775  0.6146789960354881  0.49738862076519397  1.0000
  C   C17       1.0  0.300643147188033  0.30113654752291874  0.10947691882306836  1.0000
  C   C18       1.0  0.19947685258212836  0.8013326011716077  0.109572179337337  1.0000
  C   C19       1.0  0.8005228474020059  0.1986676163821406  0.6095719980577301  1.0000
  C   C20       1.0  0.6993566874091481  0.6988633925913803  0.6094765598332694  1.0000
  C   C21       1.0  0.19620575649712949  0.29071422357785803  0.0905050456587071  1.0000
  C   C22       1.0  0.30390676288019064  0.7908959239157155  0.09037052763583263  1.0000
  C   C23       1.0  0.6960933382292914  0.20910402659507601  0.5903709000062713  1.0000
  C   C24       1.0  0.8037944892268811  0.7092858404408448  0.5905048535110222  1.0000
  H   H1        1.0  0.13545686314344127  0.5058998437092785  0.7183917610967134  1.0000
  H   H2        1.0  0.36462374863117536  0.006121828150057462  0.7184644574925453  1.0000
  H   H3        1.0  0.6353760609584346  0.9938780159069178  0.2184642710511496  1.0000
  H   H4        1.0  0.8645431019813441  0.4941002348232226  0.218392043903625  1.0000
  H   H5        1.0  0.4276128239881102  0.395351789043623  0.014984437913455016  1.0000
  H   H6        1.0  0.07253039817057982  0.8956084785375729  0.015795451110911154  1.0000
  H   H7        1.0  0.9274696531629616  0.10439148780956115  0.5157954487786285  1.0000
  H   H8        1.0  0.5723870575802711  0.6046481474090116  0.51498448002717  1.0000
  H   H9        1.0  0.34658275933141547  0.24382665410163926  0.2163236586715792  1.0000
  H   H10       1.0  0.15353212319323326  0.7440373274517361  0.21648309610971295  1.0000
  H   H11       1.0  0.8464679536944415  0.25596265066361235  0.7164834154126086  1.0000
  H   H12       1.0  0.6534172807001423  0.756173263397269  0.716323570812563  1.0000
  H   H13       1.0  0.15938386138975236  0.2263972850324676  0.18438714507925133  1.0000
  H   H14       1.0  0.34075308446972524  0.7265969252010405  0.1842555701331703  1.0000
  H   H15       1.0  0.659246805370516  0.2734033976510787  0.6842555398278021  1.0000
  H   H16       1.0  0.8406161564252334  0.7736026536768768  0.6843872768449847  1.0000
  N   N1        1.0  0.028237949970150073  0.35318941475477217  0.9329866932789652  1.0000
  N   N2        1.0  0.4718797040096258  0.8535159975619315  0.9334363056654205  1.0000
  N   N3        1.0  0.52812019685267  0.14648406663190014  0.43343687226580396  1.0000
  N   N4        1.0  0.9717619574647148  0.6468104978194305  0.43298696842524786  1.0000
  N   N5        1.0  0.3328502639190625  0.5469676176696655  0.7433434597005714  1.0000
  N   N6        1.0  0.1672096789311918  0.04717629158286373  0.7434831560560528  1.0000
  N   N7        1.0  0.8327901176519605  0.9528236385241549  0.2434834938925911  1.0000
  N   N8        1.0  0.6671497126782057  0.45303234853978275  0.2433438533357209  1.0000
  O   O1        1.0  0.9904931092770458  0.2851621762933917  0.09400249854763032  1.0000
  O   O2        1.0  0.5096639923238772  0.7856301923483382  0.09515059255895988  1.0000
  O   O3        1.0  0.4903360709212333  0.21436987736338994  0.595150236455655  1.0000
  O   O4        1.0  0.009506867768027793  0.7148379426239985  0.5940024433231886  1.0000
  O   O5        1.0  0.9793105678386712  0.4118622442713683  0.7588078432243325  1.0000
  O   O6        1.0  0.5207944278586588  0.9121800617606509  0.7591512159994532  1.0000
  O   O7        1.0  0.4792056176163508  0.08782006722632048  0.25915103147334917  1.0000
  O   O8        1.0  0.020689443881749696  0.5881376618348763  0.25880733403347206  1.0000
  O   O9        1.0  0.28171687414601804  0.6012738901313647  0.5570636652373443  1.0000
  O   O10       1.0  0.21827168689140278  0.10136890506391623  0.5565278792146806  1.0000
  O   O11       1.0  0.7817282274061129  0.8986311496426789  0.05652781847088609  1.0000
  O   O12       1.0  0.7182830650411542  0.3987259573584546  0.05706325666008211  1.0000
  O   O13       1.0  0.4205554776553368  0.5631867123851203  0.8387903517761597  1.0000
  O   O14       1.0  0.07956799851315688  0.06346758748661373  0.8394146754253654  1.0000
  O   O15       1.0  0.9204321655175531  0.936532327399139  0.33941460016718783  1.0000
  O   O16       1.0  0.5794446752751161  0.4368133155818418  0.3387902415330832  1.0000
