data_C6H4N2O4
_audit_creation_method 'chmpy python library version 1.0a1'
_cell_length_a 11.757296
_cell_length_b 14.19825
_cell_length_c 3.642479
_cell_angle_alpha 90.0
_cell_angle_beta 90.0
_cell_angle_gamma 90.0
loop_
_symmetry_equiv_pos_site_id
_symmetry_equiv_pos_as_xyz
                   1 +x,+y,+z
                   2 -x,-y,1/2+z
                   3 1/2+x,1/2-y,+z
                   4 1/2-x,1/2+y,1/2+z
loop_
_atom_site_label
_atom_site_type_symbol
_atom_site_fract_x
_atom_site_fract_y
_atom_site_fract_z
_atom_site_occupancy
C C       0.142071000000       0.364725000000       0.970200000000       1.000000000000
C C       0.190659000000       0.449959000000       0.855024000000       1.000000000000
C C       0.302581000000       0.452680000000       0.720069000000       1.000000000000
C C       0.366662000000       0.369030000000       0.705672000000       1.000000000000
C C       0.318607000000       0.283765000000      -0.178886000000       1.000000000000
C C       0.206775000000       0.281732000000      -0.047431000000       1.000000000000
H H       0.140913000000       0.515090000000       0.872568000000       1.000000000000
H H       0.454071000000       0.371769000000      -0.398789000000       1.000000000000
H H       0.367915000000       0.218203000000      -0.194532000000       1.000000000000
H H       0.166752000000       0.215613000000       0.038805000000       1.000000000000
N N       0.022518000000       0.360445000000       1.092821000000       1.000000000000
N N       0.348868000000       0.542389000000       0.576248000000       1.000000000000
O O       0.993690000000       0.297626000000       0.317471000000       1.000000000000
O O       0.952472000000       0.418530000000       0.964221000000       1.000000000000
O O       0.291815000000       0.586617000000       0.341388000000       1.000000000000
O O       0.442713000000       0.572477000000       0.691510000000       1.000000000000
#END