# CIF file generated from CASTEP cell file
# https://gist.github.com/blake-armstrong/93facdde07a6e0a1ddb51857dd48e3f1
# Structure converted from CASTEP

data_structure

_cell_length_a    13.222315792288599
_cell_length_b    14.202255469465200
_cell_length_c    3.762780204323450
_cell_angle_alpha 90.000000000000000
_cell_angle_beta  90.000000000000000
_cell_angle_gamma 90.000000000000000

_symmetry_space_group_name_H-M 'P 1'
_symmetry_Int_Tables_number 1

loop_
_atom_site_label
_atom_site_type_symbol
_atom_site_fract_x
_atom_site_fract_y
_atom_site_fract_z
H1       H     0.133997408939951    0.505835252303692    0.714886210957298
H2       H     0.426970304561183    0.398614906625049    1.020164185258462
H3       H     0.346865734560984    0.248249429740011    1.221656537989154
H4       H     0.159473138136774    0.229480873715166    1.184710312636101
H5       H     0.866002591060048    0.494164747696309    0.214886210957300
H6       H     0.573029695438817    0.601385093374950    0.520164185258460
H7       H     0.653134265439014    0.751750570259989    0.721656537989156
H8       H     0.840526861863226    0.770519126284833    0.684710312636099
H9       H     0.366002591060049    1.005835252303691    0.714886210957298
H10      H     0.073029695438817    0.898614906625049    1.020164185258462
H11      H     0.153134265439014    0.748249429740011    1.221656537989154
H12      H     0.340526861863226    0.729480873715167    1.184710312636101
H13      H     0.633997408939952   -0.005835252303691    0.214886210957300
H14      H     0.926970304561184    0.101385093374950    0.520164185258460
H15      H     0.846865734560986    0.251750570259990    0.721656537989156
H16      H     0.659473138136774    0.270519126284833    0.684710312636099
C1       C     0.137981642871936    0.366234474342196    0.948764850411167
C2       C     0.180061612171534    0.449895532037806    0.826438323521995
C3       C     0.284365782679994    0.458977992051780    0.860118944001795
C4       C     0.345684053007455    0.388095316262108    1.000583915205701
C5       C     0.300508131976298    0.304456395078699    1.112651205057756
C6       C     0.195977123405574    0.293348725668649    1.091258387645805
C7       C     0.862018357128064    0.633765525657804    0.448764850411167
C8       C     0.819938387828465    0.550104467962193    0.326438323521996
C9       C     0.715634217320008    0.541022007948219    0.360118944001794
C10      C     0.654315946992545    0.611904683737891    0.500583915205702
C11      C     0.699491868023701    0.695543604921301    0.612651205057756
C12      C     0.804022876594426    0.706651274331352    0.591258387645805
C13      C     0.362018357128064    0.866234474342196    0.948764850411167
C14      C     0.319938387828465    0.949895532037806    0.826438323521995
C15      C     0.215634217320006    0.958977992051781    0.860118944001795
C16      C     0.154315946992545    0.888095316262108    1.000583915205701
C17      C     0.199491868023701    0.804456395078698    1.112651205057756
C18      C     0.304022876594426    0.793348725668648    1.091258387645805
C19      C     0.637981642871936    0.133765525657805    0.448764850411167
C20      C     0.680061612171535    0.050104467962194    0.326438323521996
C21      C     0.784365782679993    0.041022007948220    0.360118944001794
C22      C     0.845684053007455    0.111904683737893    0.500583915205702
C23      C     0.800508131976299    0.195543604921302    0.612651205057756
C24      C     0.695977123405575    0.206651274331350    0.591258387645805
N1       N     0.027140997107335    0.354159281197645    0.930160288694721
N2       N     0.331651355070711    0.548002819843741    0.743125573606824
N3       N     0.972859002892663    0.645840718802355    0.430160288694722
N4       N     0.668348644929289    0.451997180156257    0.243125573606824
N5       N     0.472859002892665    0.854159281197645    0.930160288694721
N6       N     0.168348644929289    1.048002819843743    0.743125573606824
N7       N     0.527140997107337    0.145840718802355    0.430160288694722
N8       N     0.831651355070711   -0.048002819843743    0.243125573606824
O1       O    -0.010010840088828    0.286287370421084    1.088839854933232
O2       O    -0.022006892327468    0.412375928060294    0.757708684807283
O3       O     0.280127663556112    0.601832991371583    0.558501010706866
O4       O     0.419525649714923    0.563567020753550    0.837131399274174
O5       O     1.010010840088826    0.713712629578916    0.588839854933233
O6       O     1.022006892327469    0.587624071939705    0.257708684807284
O7       O     0.719872336443888    0.398167008628419    0.058501010706866
O8       O     0.580474350285078    0.436432979246451    0.337131399274174
O9       O     0.510010840088829    0.786287370421084    1.088839854933232
O10      O     0.522006892327468    0.912375928060294    0.757708684807283
O11      O     0.219872336443888    1.101832991371582    0.558501010706866
O12      O     0.080474350285077    1.063567020753550    0.837131399274174
O13      O     0.489989159911173    0.213712629578916    0.588839854933233
O14      O     0.477993107672532    0.087624071939705    0.257708684807284
O15      O     0.780127663556112   -0.101832991371581    0.058501010706866
O16      O     0.919525649714923   -0.063567020753549    0.337131399274174
