data_DNBENZ10.b3lyp.6-311G**.dma4.-88.2225.1.6651
_audit_creation_method 'generated by cspy2.0'
_cell_length_a 12.8561
_cell_length_b 13.914
_cell_length_c 3.749
_cell_angle_alpha 90.0
_cell_angle_beta 90.0
_cell_angle_gamma 90.4964
loop_
_symmetry_equiv_pos_site_id
_symmetry_equiv_pos_as_xyz
1 +x,+y,+z
loop_
_atom_site_label
_atom_site_type_symbol
_atom_site_fract_x
_atom_site_fract_y
_atom_site_fract_z
_atom_site_occupancy
C1 C       0.135402680000       0.365555820000       0.954895240000       1.000000000000
C2 C       0.181099030000       0.450279120000       0.849674410000       1.000000000000
C3 C       0.286716630000       0.456570790000       0.897784600000       1.000000000000
C4 C       0.346715750000       0.382535340000       1.022038930000       1.000000000000
C5 C       0.295852820000       0.300165320000       1.138555690000       1.000000000000
C6 C       0.189865180000       0.291291490000       1.102302900000       1.000000000000
C7 C       0.868082840000       0.638414250000       0.454895210000       1.000000000000
C8 C       0.822386520000       0.553690940000       0.349674360000       1.000000000000
C9 C       0.716768920000       0.547399230000       0.397784500000       1.000000000000
C10 C       0.656769760000       0.621434660000       0.522038800000       1.000000000000
C11 C       0.707632660000       0.703804710000       0.638555590000       1.000000000000
C12 C       0.813620300000       0.712678570000       0.602302840000       1.000000000000
C13 C       0.365988840000       0.861127170000       0.964618710000       1.000000000000
C14 C       0.323166280000       0.946076410000       0.855628790000       1.000000000000
C15 C       0.217628830000       0.953508010000       0.900110220000       1.000000000000
C16 C       0.155049460000       0.880328230000       1.024386060000       1.000000000000
C17 C       0.203078200000       0.797703400000       1.144776790000       1.000000000000
C18 C       0.308874620000       0.787710220000       1.112233540000       1.000000000000
C19 C       0.637496650000       0.142842950000       0.464618740000       1.000000000000
C20 C       0.680319140000       0.057893690000       0.355628740000       1.000000000000
C21 C       0.785856590000       0.050462020000       0.400110060000       1.000000000000
C22 C       0.848436020000       0.123641760000       0.524385900000       1.000000000000
C23 C       0.800407350000       0.206266620000       0.644776720000       1.000000000000
C24 C       0.694610950000       0.216259870000       0.612233560000       1.000000000000
H1 H       0.143522400000       0.492210600000       0.629199570000       1.000000000000
H2 H       0.412453640000       0.394278210000       1.068360360000       1.000000000000
H3 H       0.321604860000       0.241166020000       1.092897190000       1.000000000000
H4 H       0.153663300000       0.236854270000       1.123281720000       1.000000000000
H5 H       0.859963170000       0.511759480000       0.129199540000       1.000000000000
H6 H       0.591031900000       0.609691770000       0.568360190000       1.000000000000
H7 H       0.681880610000       0.762803980000       0.592897060000       1.000000000000
H8 H       0.849822170000       0.767115800000       0.623281670000       1.000000000000
H9 H       0.362614930000       0.987186790000       0.635270260000       1.000000000000
H10 H       0.089554610000       0.892812040000       1.068236950000       1.000000000000
H11 H       0.175662110000       0.738877740000       1.099867780000       1.000000000000
H12 H       0.343356440000       0.732966680000       1.135861310000       1.000000000000
H13 H       0.640870450000       0.016783360000       0.135270210000       1.000000000000
H14 H       0.913930860000       0.111157900000       0.568236720000       1.000000000000
H15 H       0.827823490000       0.265092250000       0.599867710000       1.000000000000
H16 H       0.660129160000       0.271003430000       0.635861400000       1.000000000000
N1 N       0.020874400000       0.355505630000       0.920832510000       1.000000000000
N2 N       0.339783000000       0.546481720000       0.780766000000       1.000000000000
N3 N       0.982611120000       0.648464470000       0.420832540000       1.000000000000
N4 N       0.663702580000       0.457488290000       0.280765860000       1.000000000000
N5 N       0.480282450000       0.849877770000       0.934576510000       1.000000000000
N6 N       0.167627770000       1.043693200000       0.778942520000       1.000000000000
N7 N       0.523203050000       0.154092430000       0.434576650000       1.000000000000
N8 N       0.835857570000      -0.039723190000       0.278942260000       1.000000000000
O1 O      -0.020428270000       0.286583920000       1.079704130000       1.000000000000
O2 O      -0.025089310000       0.415467380000       0.756654270000       1.000000000000
O3 O       0.288344900000       0.602838470000       0.609525240000       1.000000000000
O4 O       0.427584830000       0.560286010000       0.899174480000       1.000000000000
O5 O       1.023913750000       0.717386190000       0.579704170000       1.000000000000
O6 O       1.028574860000       0.588502760000       0.256654330000       1.000000000000
O7 O       0.715140710000       0.401131560000       0.109525140000       1.000000000000
O8 O       0.575900770000       0.443683980000       0.399174320000       1.000000000000
O9 O       0.519045710000       0.780878330000       1.096644040000       1.000000000000
O10 O       0.528510570000       0.909045110000       0.770299380000       1.000000000000
O11 O       0.221238940000       1.099187890000       0.607879600000       1.000000000000
O12 O       0.079938430000       1.058600810000       0.894097790000       1.000000000000
O13 O       0.484439870000       0.223091900000       0.596644270000       1.000000000000
O14 O       0.474974870000       0.094925130000       0.270299540000       1.000000000000
O15 O       0.782246340000      -0.095217840000       0.107879360000       1.000000000000
O16 O       0.923546900000      -0.054630860000       0.394097450000       1.000000000000
#END