data_MALNAC06.b3lyp.6-311G**.dma4.-101.7143.1.6287
_audit_creation_method 'generated by cspy2.0'
_cell_length_a 5.2288
_cell_length_b 6.4493
_cell_length_c 6.699
_cell_angle_alpha 98.9531
_cell_angle_beta 103.5279
_cell_angle_gamma 99.4354
loop_
_symmetry_equiv_pos_site_id
_symmetry_equiv_pos_as_xyz
1 +x,+y,+z
loop_
_atom_site_label
_atom_site_type_symbol
_atom_site_fract_x
_atom_site_fract_y
_atom_site_fract_z
_atom_site_occupancy
O1 O       0.952336160000       0.167104960000       0.778857740000       1.000000000000
O2 O       0.762408530000       0.231066080000       0.470415110000       1.000000000000
O3 O       1.030097000000       0.672355650000       0.835802320000       1.000000000000
O4 O       0.652657850000       0.755824680000       0.893704030000       1.000000000000
O5 O       0.070138880000       0.993759670000       0.300429250000       1.000000000000
O6 O       0.246025720000       0.921090330000       0.607972590000       1.000000000000
O7 O      -0.031577000000       0.486944340000       0.235413880000       1.000000000000
O8 O       0.342475990000       0.392686950000       0.181567780000       1.000000000000
C1 C       0.797200570000       0.252465080000       0.669492310000       1.000000000000
C2 C       0.637626100000       0.395547000000       0.760784050000       1.000000000000
C3 C       0.791866670000       0.622370700000       0.834141760000       1.000000000000
C4 C       0.216830420000       0.902313140000       0.409671550000       1.000000000000
C5 C       0.371632790000       0.754370760000       0.319008900000       1.000000000000
C6 C       0.208541790000       0.530638090000       0.240865050000       1.000000000000
H1 H       0.878253580000       0.147658740000       0.425108170000       1.000000000000
H2 H       0.472720100000       0.391034780000       0.655757440000       1.000000000000
H3 H       0.589329230000       0.343163890000       0.877880070000       1.000000000000
H4 H       0.774126880000       0.903179350000       0.950961720000       1.000000000000
H5 H       0.133285750000       1.008045260000       0.652680870000       1.000000000000
H6 H       0.532846800000       0.753321690000       0.425407820000       1.000000000000
H7 H       0.426388700000       0.806912000000       0.204218760000       1.000000000000
H8 H       0.215632580000       0.248026350000       0.121001950000       1.000000000000
#END