# CIF file generated from CASTEP cell file
# https://gist.github.com/blake-armstrong/93facdde07a6e0a1ddb51857dd48e3f1
# Structure converted from CASTEP

data_structure

_cell_length_a    5.273083061007595
_cell_length_b    5.323341191419798
_cell_length_c    8.429354892583406
_cell_angle_alpha 108.862277778783138
_cell_angle_beta  97.402758792952426
_cell_angle_gamma 97.214279645899737

_symmetry_space_group_name_H-M 'P 1'
_symmetry_Int_Tables_number 1

loop_
_atom_site_label
_atom_site_type_symbol
_atom_site_fract_x
_atom_site_fract_y
_atom_site_fract_z
H1       H     0.889887642041562    0.110397195066408    0.417489623640148
H2       H     0.109861933145689    0.889673693223208    0.582521711767335
H3       H     0.479240959895604    0.436186254404214    0.680084274814243
H4       H     0.520519238230050    0.563910996416767    0.319934943477227
H5       H     0.564596273880190    0.287792925646483    0.835962190809103
H6       H     0.435141884504950    0.712281294307995    0.164036555333920
H7       H     0.793365938950798    1.009316734712034    0.023181454190321
H8       H     0.206403954514296   -0.009263841419548    0.976861119426191
C1       C     0.795314681364804    0.212476802844690    0.639424021539320
C2       C     0.204436121712558    0.787605252816622    0.360586148475795
C3       C     0.642470391781044    0.389856807777804    0.753711860172580
C4       C     0.357289305144060    0.610228820161307    0.246299634874556
C5       C     0.812970653079667    0.654566372034752    0.868193827065667
C6       C     0.186805091156146    0.345501103535711    0.131828655140172
O1       O     0.930885320698831    0.070063077623912    0.689480179506189
O2       O     0.068862748199414    0.930022300056728    0.310534997193671
O3       O     0.772399611069892    0.226527079740177    0.484540545816812
O4       O     0.227351050853432    0.773547830358546    0.515468555722551
O5       O     0.051045016060944    0.699451333450773    0.876288663441745
O6       O     0.948728770844491    0.300617944998790    0.123718402334348
O7       O     0.678448857780422    0.825365725392771    0.954372510187491
O8       O     0.321334022855330    0.174677988102764    0.045679822017297
