data_cif

_audit_creation_method             'generated by GULP'

_symmetry_space_group_name_H-M     'P -1            '
_symmetry_Int_Tables_number        2
_symmetry_cell_setting             Triclinic   

_cell_length_a                       5.442716
_cell_length_b                       5.331283
_cell_length_c                       8.210981
_cell_angle_alpha                  108.186616
_cell_angle_beta                   104.846579
_cell_angle_gamma                   97.047182

loop_
_atom_site_label
_atom_site_fract_x
_atom_site_fract_y
_atom_site_fract_z
_atom_site_occupancy
  O4          0.92677      0.06313      0.65971  1.0000
  O1          0.76808      0.26932      0.47303  1.0000
  C2          0.79529      0.21926      0.62517  1.0000
  C5          0.63886      0.35592      0.73765  1.0000
  C2          0.78599      0.63535      0.86231  1.0000
  O4          0.01572      0.72654      0.89340  1.0000
  O1          0.64129      0.78412      0.94161  1.0000
  H3          0.88443      0.16510      0.42099  1.0000
  H6          0.45586      0.36946      0.65033  1.0000
  H6          0.59251      0.23710      0.81696  1.0000
  H3          0.76643      0.95843      0.01197  1.0000
