data_C3H4O4
_audit_creation_method 'chmpy python library version 1.0a1'
_cell_length_a 4.780697
_cell_length_b 5.74949
_cell_length_c 7.328811
_cell_angle_alpha 103.928505
_cell_angle_beta 105.560321
_cell_angle_gamma 92.276875
loop_
_symmetry_equiv_pos_site_id
_symmetry_equiv_pos_as_xyz
                   1 -x,-y,-z
                   2 +x,+y,+z
loop_
_atom_site_label
_atom_site_type_symbol
_atom_site_fract_x
_atom_site_fract_y
_atom_site_fract_z
_atom_site_occupancy
O O       0.891497000000       0.079464000000       0.681429000000       1.000000000000
O O       0.770261000000       0.301116000000       0.458455000000       1.000000000000
C C       0.769146000000       0.247888000000       0.630066000000       1.000000000000
C C       0.614430000000       0.405991000000       0.760129000000       1.000000000000
C C       0.775733000000       0.655978000000       0.862736000000       1.000000000000
O O       0.027265000000       0.708794000000       0.860151000000       1.000000000000
O O       0.626542000000       0.814849000000       0.960275000000       1.000000000000
H H       0.887642000000       0.184515000000       0.390822000000       1.000000000000
H H       0.390768000000       0.423269000000       0.672356000000       1.000000000000
H H       0.588198000000       0.315321000000       0.873315000000       1.000000000000
H H       0.747839000000       0.977842000000       0.021565000000       1.000000000000
#END