data_image0
_chemical_formula_structural       O4C6O4H8
_chemical_formula_sum              "O8 C6 H8"
_cell_length_a       5.531524295012139
_cell_length_b       5.4497366910203136
_cell_length_c       8.727634687926109
_cell_angle_alpha    112.43963048785925
_cell_angle_beta     92.11517175550921
_cell_angle_gamma    99.97404870249191

_space_group_name_H-M_alt    "P 1"
_space_group_IT_number       1

loop_
  _space_group_symop_operation_xyz
  'x, y, z'

loop_
  _atom_site_type_symbol
  _atom_site_label
  _atom_site_symmetry_multiplicity
  _atom_site_fract_x
  _atom_site_fract_y
  _atom_site_fract_z
  _atom_site_occupancy
  O   O1        1.0  0.9265401312703638  0.05890422645451234  0.6882373611618139  1.0000
  O   O2        1.0  0.07169397364282938  0.9390417700145992  0.310587024256177  1.0000
  O   O3        1.0  0.7987672666285002  0.21822163119068605  0.5026815104759496  1.0000
  O   O4        1.0  0.20286140042524467  0.7842516976912154  0.4976422386939421  1.0000
  C   C1        1.0  0.808240619922012  0.20367770413362368  0.6484501269800058  1.0000
  C   C2        1.0  0.19167769476562255  0.7963447473031032  0.35117555356599617  1.0000
  C   C3        1.0  0.663005624229173  0.38116177065375584  0.7700320664736942  1.0000
  C   C4        1.0  0.3371046994574687  0.6187060305779384  0.23002955227164168  1.0000
  C   C5        1.0  0.8209911578468754  0.6554302793532795  0.8748893902876477  1.0000
  C   C6        1.0  0.17902871831981934  0.34455720860312355  0.12534772783315418  1.0000
  O   O5        1.0  0.047671749125628174  0.7035479656869921  0.8708125631795324  1.0000
  O   O6        1.0  0.9525742717527143  0.2962114561724551  0.13028239077011275  1.0000
  O   O7        1.0  0.6961318035283611  0.8277509715929545  0.9669081827593499  1.0000
  O   O8        1.0  0.3035971169792755  0.17253740510840626  0.032732567454250544  1.0000
  H   H1        1.0  0.9145367468716286  0.10162468943098647  0.42587550076656294  1.0000
  H   H2        1.0  0.0854068165795887  0.8991289260652695  0.5738122524800204  1.0000
  H   H3        1.0  0.5031317552345804  0.4117583631469941  0.705466268580893  1.0000
  H   H4        1.0  0.4964589297491653  0.587951837991933  0.2949778039502598  1.0000
  H   H5        1.0  0.5918495532727389  0.28641727390812977  0.8552953895782485  1.0000
  H   H6        1.0  0.40860328808867646  0.7129527841621947  0.14458551239241935  1.0000
  H   H7        1.0  0.8101462440329992  0.020199287100480356  0.03460485830074668  1.0000
  H   H8        1.0  0.18997590265397268  0.9796249509948368  0.9655729110375734  1.0000
