data_image0
_chemical_formula_structural       O4C6O4H8
_chemical_formula_sum              "O8 C6 H8"
_cell_length_a       5.1626
_cell_length_b       5.3452
_cell_length_c       8.4162
_cell_angle_alpha    108.516
_cell_angle_beta     100.603
_cell_angle_gamma    94.954

_space_group_name_H-M_alt    "P 1"
_space_group_IT_number       1

loop_
  _space_group_symop_operation_xyz
  'x, y, z'

loop_
  _atom_site_type_symbol
  _atom_site_label
  _atom_site_symmetry_multiplicity
  _atom_site_fract_x
  _atom_site_fract_y
  _atom_site_fract_z
  _atom_site_occupancy
  O   O1        1.0  0.9280027358211799  0.06664161575416248  0.6874957039861377  1.0000
  O   O2        1.0  0.07169411847468322  0.933403631449305  0.3124898145851998  1.0000
  O   O3        1.0  0.7706376718529395  0.2384698407208626  0.4815927142847934  1.0000
  O   O4        1.0  0.22901750824342035  0.761164574155401  0.5181935441654947  1.0000
  C   C1        1.0  0.7921332220295787  0.2175115680235592  0.6360426783318877  1.0000
  C   C2        1.0  0.20765385771550784  0.782500216674047  0.36384935948663655  1.0000
  C   C3        1.0  0.636489085094988  0.3962094953996786  0.7470036512117223  1.0000
  C   C4        1.0  0.3634945467537943  0.60410546398628  0.25289440864296403  1.0000
  C   C5        1.0  0.8111021143983813  0.656023946011945  0.8644182038958207  1.0000
  C   C6        1.0  0.18918500748197398  0.34399972153768965  0.1356956159862368  1.0000
  O   O5        1.0  0.05487584899294924  0.6984336072764011  0.8752950446660377  1.0000
  O   O6        1.0  0.9453247394171976  0.3015778242770128  0.12447422917232415  1.0000
  O   O7        1.0  0.6738341629451485  0.8259643013421207  0.9499520666177298  1.0000
  O   O8        1.0  0.32676096049475284  0.17361654202489213  0.05080730391852893  1.0000
  H   H1        1.0  0.8894583026707129  0.11998903778642747  0.4158932370190725  1.0000
  H   H2        1.0  0.11014897177696151  0.8794294784856317  0.5839010194603453  1.0000
  H   H3        1.0  0.46683990854656787  0.4457901834433593  0.669123694251481  1.0000
  H   H4        1.0  0.5333689809909828  0.5548550159266372  0.33077512979624535  1.0000
  H   H5        1.0  0.5596370947875606  0.2961434410625546  0.8283896682072253  1.0000
  H   H6        1.0  0.4399941860640635  0.7041976375444805  0.17140308086655184  1.0000
  H   H7        1.0  0.7888684939146139  0.008036078500326171  0.02106455832411192  1.0000
  H   H8        1.0  0.21147850135698149  0.9919367181112649  0.9792452548885834  1.0000
