data_image0
_chemical_formula_structural       I4O12H4
_chemical_formula_sum              "I4 O12 H4"
_cell_length_a       5.42715854230642
_cell_length_b       5.687723201410628
_cell_length_c       7.595150880267564
_cell_angle_alpha    89.87397717239034
_cell_angle_beta     90.00199129747178
_cell_angle_gamma    89.98376335483358

_space_group_name_H-M_alt    "P 1"
_space_group_IT_number       1

loop_
  _space_group_symop_operation_xyz
  'x, y, z'

loop_
  _atom_site_type_symbol
  _atom_site_label
  _atom_site_symmetry_multiplicity
  _atom_site_fract_x
  _atom_site_fract_y
  _atom_site_fract_z
  _atom_site_occupancy
  I   I1        1.0  0.7828441429041777  0.38972943300888424  0.33498683295526616  1.0000
  I   I2        1.0  0.7162141076719322  0.610036095979445  0.8351147203432877  1.0000
  I   I3        1.0  0.2826833192570813  0.10930105757602605  0.6643238617445469  1.0000
  I   I4        1.0  0.21696940984160523  0.890256597627602  0.16436293162044224  1.0000
  O   O1        1.0  0.9222933322450351  0.020428624453926222  0.2632418393345169  1.0000
  O   O2        1.0  0.5778863707176685  0.9796168548082931  0.7633358668611745  1.0000
  O   O3        1.0  0.4211531218623876  0.48042715729030977  0.7369903812491265  1.0000
  O   O4        1.0  0.07804184878333185  0.520355496525754  0.23722971296126455  1.0000
  O   O5        1.0  0.6537823224199237  0.6926574450836883  0.41891997029485983  1.0000
  O   O6        1.0  0.845946017580511  0.30700732564272204  0.9188599657216682  1.0000
  O   O7        1.0  0.15344233890542747  0.806586764824122  0.5811919605698022  1.0000
  O   O8        1.0  0.34707405143372333  0.1935231066049265  0.08151866259919084  1.0000
  O   O9        1.0  0.9011519654853969  0.32200213319483795  0.5616635558663851  1.0000
  O   O10       1.0  0.5990272611471182  0.6768122276234262  0.062078273893071606  1.0000
  O   O11       1.0  0.4021897847154393  0.17666453777248906  0.4378435255267526  1.0000
  O   O12       1.0  0.09842546584694271  0.8250952164141271  0.9376284385006417  1.0000
  H   H1        1.0  0.759751566568494  0.8208427746950449  0.3624543950818346  1.0000
  H   H2        1.0  0.7402181686712782  0.17887916715422175  0.8624874822360431  1.0000
  H   H3        1.0  0.2598547231147861  0.678434293976269  0.6377563751664993  1.0000
  H   H4        1.0  0.2410503486188923  0.3213438315319328  0.1380111548675276  1.0000
