data_image0
_chemical_formula_structural       I4O12H4
_chemical_formula_sum              "I4 O12 H4"
_cell_length_a       5.54
_cell_length_b       5.8768
_cell_length_c       7.737
_cell_angle_alpha    90.0
_cell_angle_beta     90.0
_cell_angle_gamma    90.0

_space_group_name_H-M_alt    "P 1"
_space_group_IT_number       1

loop_
  _space_group_symop_operation_xyz
  'x, y, z'

loop_
  _atom_site_type_symbol
  _atom_site_label
  _atom_site_symmetry_multiplicity
  _atom_site_fract_x
  _atom_site_fract_y
  _atom_site_fract_z
  _atom_site_occupancy
  I   I1        1.0  0.800513458687319  0.4229552157707965  0.3496504231953371  1.0000
  I   I2        1.0  0.6994867126204407  0.5770447957168399  0.8496500733790125  1.0000
  I   I3        1.0  0.30051331044419727  0.07704372421001063  0.6503491619672841  1.0000
  I   I4        1.0  0.1994870964438269  0.9229552402723529  0.15035012744833803  1.0000
  O   O1        1.0  0.9324197267736763  0.023229449687269834  0.2620030373664179  1.0000
  O   O2        1.0  0.5675806623535088  0.9767715187811249  0.7620041275786102  1.0000
  O   O3        1.0  0.43242022093600757  0.47676984967658126  0.7379967695215959  1.0000
  O   O4        1.0  0.06758036457341055  0.5232292067074217  0.23799682000301875  1.0000
  O   O5        1.0  0.6729201992259092  0.7102498224344801  0.4160993754113292  1.0000
  O   O6        1.0  0.8270792417646643  0.28975080428734956  0.9160992127256847  1.0000
  O   O7        1.0  0.17291844041862364  0.7897490524146561  0.5838999772189938  1.0000
  O   O8        1.0  0.3270792697787428  0.2102493681702905  0.08390026798646004  1.0000
  O   O9        1.0  0.9123316902641349  0.34705214052863653  0.5552308245169351  1.0000
  O   O10       1.0  0.5876685445082965  0.6529474665567453  0.055230565761872054  1.0000
  O   O11       1.0  0.41233206083857193  0.1529482885045345  0.44476919080200256  1.0000
  O   O12       1.0  0.08766847583537223  0.847053427864778  0.9447696917086194  1.0000
  H   H1        1.0  0.7755162861166132  0.8365075900068278  0.36379625380292485  1.0000
  H   H2        1.0  0.7244838816086568  0.16349205859498772  0.8637962724312854  1.0000
  H   H3        1.0  0.2755167694634682  0.6634938833817323  0.6362041479473456  1.0000
  H   H4        1.0  0.2244837108869794  0.33650729314946254  0.13620369289201031  1.0000
