data_cif

_audit_creation_method             'generated by GULP'

_symmetry_space_group_name_H-M     'P 1             '
_symmetry_Int_Tables_number        1
_symmetry_cell_setting             Triclinic   

_cell_length_a                       4.276692
_cell_length_b                       6.557611
_cell_length_c                       7.914446
_cell_angle_alpha                   89.999865
_cell_angle_beta                    90.000066
_cell_angle_gamma                   90.000032

loop_
_atom_site_label
_atom_site_fract_x
_atom_site_fract_y
_atom_site_fract_z
_atom_site_occupancy
  I1          0.20395      0.91462      0.15737  1.0000
  I1          0.37126      0.06185      0.65737  1.0000
  I1          0.70395      0.56184      0.83208  1.0000
  I1          0.87126      0.41462      0.33208  1.0000
  O2          0.19277      0.51939      0.50246  1.0000
  O2          0.38244      0.45708      0.00246  1.0000
  O2          0.69276      0.95708      0.48699  1.0000
  O2          0.88244      0.01938      0.98698  1.0000
  O4          0.91136      0.06999      0.99129  1.0000
  O4          0.66385      0.90647      0.49129  1.0000
  O4          0.41136      0.40647      0.99816  1.0000
  O4          0.16385      0.57000      0.49816  1.0000
  O2          0.88244      0.01938      0.98699  1.0000
  O2          0.69276      0.95708      0.48699  1.0000
  O2          0.38244      0.45708      0.00246  1.0000
  O2          0.19276      0.51938      0.50246  1.0000
  H3          0.02462      0.19913      0.98288  1.0000
  H3          0.55059      0.77733      0.48289  1.0000
  H3          0.52463      0.27733      0.00656  1.0000
  H3          0.05058      0.69913      0.50656  1.0000
