# CIF file generated from CASTEP cell file
# https://gist.github.com/blake-armstrong/93facdde07a6e0a1ddb51857dd48e3f1
# Structure converted from CASTEP

data_structure

_cell_length_a    5.435386723860950
_cell_length_b    5.753909052170870
_cell_length_c    7.688371228264090
_cell_angle_alpha 90.000000000000000
_cell_angle_beta  90.000000000000000
_cell_angle_gamma 90.000000000000000

_symmetry_space_group_name_H-M 'P 1'
_symmetry_Int_Tables_number 1

loop_
_atom_site_label
_atom_site_type_symbol
_atom_site_fract_x
_atom_site_fract_y
_atom_site_fract_z
H1       H     0.242925224997056    0.318162680006108    0.127960538449638
H2       H     0.257074775002944    0.681837319993891    0.627960538449638
H3       H     0.742925224997055    0.181837319993892    0.872039461550362
H4       H     0.757074775002945    0.818162680006109    0.372039461550361
O1       O     1.083092187910108    0.522349152236725    0.238350447426041
O2       O     0.349698250250542    0.193095638286593    0.076982759547936
O3       O     0.088610089972839   -0.173407613540031   -0.062002649409228
O4       O     0.416907812089892    0.477650847763276    0.738350447426040
O5       O     0.150301749749458    0.806904361713407    0.576982759547937
O6       O     0.411389910027161    1.173407613540030    0.437997350590772
O7       O     0.583092187910108    0.977650847763276    0.761649552573960
O8       O     0.849698250250542    0.306904361713408    0.923017240452063
O9       O     0.588610089972839    0.673407613540031    1.062002649409227
O10      O    -0.083092187910108    0.022349152236725    0.261649552573960
O11      O     0.650301749749457    0.693095638286593    0.423017240452062
O12      O     0.911389910027161    0.326592386459968    0.562002649409228
I1       I     0.212909407464562   -0.108396030435376    0.162801418626340
I2       I     0.287090592535437    1.108396030435374    0.662801418626341
I3       I     0.712909407464561    0.608396030435374    0.837198581373659
I4       I     0.787090592535439    0.391603969564624    0.337198581373660
