data_image0
_chemical_formula_structural       N8O16C32H40
_chemical_formula_sum              "N8 O16 C32 H40"
_cell_length_a       7.53
_cell_length_b       9.627
_cell_length_c       12.883
_cell_angle_alpha    90.0
_cell_angle_beta     90.0
_cell_angle_gamma    90.0

_space_group_name_H-M_alt    "P 1"
_space_group_IT_number       1

loop_
  _space_group_symop_operation_xyz
  'x, y, z'

loop_
  _atom_site_type_symbol
  _atom_site_label
  _atom_site_symmetry_multiplicity
  _atom_site_fract_x
  _atom_site_fract_y
  _atom_site_fract_z
  _atom_site_occupancy
  N   N1        1.0  0.057646807713136954  0.10916031003662112  0.10496157083779072  1.0000
  N   N2        1.0  0.44235353515227177  0.8908402672469873  0.6049618439200698  1.0000
  N   N3        1.0  0.557646123131085  0.39084036854092336  0.895037110093974  1.0000
  N   N4        1.0  0.9423542597288626  0.6091594227799245  0.3950379415662145  1.0000
  N   N5        1.0  0.9427886955774989  0.8909854439795818  0.8948311765578465  1.0000
  N   N6        1.0  0.5572111142373606  0.10901452860208342  0.3948318330305029  1.0000
  N   N7        1.0  0.44278815244695047  0.6090151999367596  0.1051679807913499  1.0000
  N   N8        1.0  0.057210231216246875  0.39098578928851613  0.6051678501974017  1.0000
  O   O1        1.0  0.2061203482510253  0.10713178983234073  0.2620982628155073  1.0000
  O   O2        1.0  0.29387862454331937  0.8928683034250182  0.76209867080679  1.0000
  O   O3        1.0  0.7061221970495442  0.39286880507799726  0.7379018745632294  1.0000
  O   O4        1.0  0.7938782770727671  0.6071322815394514  0.23790189661489472  1.0000
  O   O5        1.0  0.7940262787816  0.8927637867645569  0.7377900122790598  1.0000
  O   O6        1.0  0.7059732888961628  0.10723680091550127  0.23778963373434697  1.0000
  O   O7        1.0  0.29402757127964874  0.6072364004390606  0.26221075548882766  1.0000
  O   O8        1.0  0.2059734805260624  0.3927626304469563  0.7622105563023577  1.0000
  O   O9        1.0  0.8817526861898417  0.1631358102591927  0.9635329621780211  1.0000
  O   O10       1.0  0.6182475103001775  0.8368637113194626  0.4635325915884395  1.0000
  O   O11       1.0  0.3817530657285031  0.3368631861519254  0.036467688326115855  1.0000
  O   O12       1.0  0.11824655159803804  0.6631361824107118  0.5364673795145424  1.0000
  O   O13       1.0  0.11872381537124053  0.837221690749322  0.03626639539074316  1.0000
  O   O14       1.0  0.3812760205588065  0.16277763878271345  0.5362662269894398  1.0000
  O   O15       1.0  0.6187249880875763  0.6627772399688497  0.963734020701977  1.0000
  O   O16       1.0  0.881276246918661  0.33722259536991905  0.463733725551497  1.0000
  C   C1        1.0  0.11441470845317685  0.16801630340571366  0.19774367334460044  1.0000
  C   C2        1.0  0.3855844171931608  0.8319839827184665  0.6977442167516417  1.0000
  C   C3        1.0  0.6144163256960017  0.3319825456732854  0.8022551534041942  1.0000
  C   C4        1.0  0.8855846557792572  0.6680164939442396  0.30225624957407776  1.0000
  C   C5        1.0  0.8857735468032455  0.8319482925169402  0.8021594124260278  1.0000
  C   C6        1.0  0.6142260156572729  0.16805082938647323  0.3021601158625155  1.0000
  C   C7        1.0  0.38577402608219286  0.668050690087923  0.19784011811803473  1.0000
  C   C8        1.0  0.11422470129381804  0.3319501465052624  0.6978396451793248  1.0000
  C   C9        1.0  0.9525348025791189  0.1958115093900319  0.04700090138973359  1.0000
  C   C10       1.0  0.5474650044660845  0.8041886968127383  0.5470001604346082  1.0000
  C   C11       1.0  0.4525357765828879  0.30418985020760364  0.9529996835534463  1.0000
  C   C12       1.0  0.04746482449236198  0.6958112452353638  0.4529993456179226  1.0000
  C   C13       1.0  0.047845949314980915  0.8043941922426697  0.9528572174675345  1.0000
  C   C14       1.0  0.4521539428572054  0.1956069039659826  0.45285716621049615  1.0000
  C   C15       1.0  0.5478463961261677  0.6956067032752586  0.04714287271402215  1.0000
  C   C16       1.0  0.9521536426257875  0.3043923167672281  0.5471425982394211  1.0000
  C   C17       1.0  0.040910470314745366  0.31419226005857226  0.20354694735670534  1.0000
  C   C18       1.0  0.45908922928873797  0.6858075554597284  0.7035469862814531  1.0000
  C   C19       1.0  0.5409097641371501  0.18580607213291564  0.7964533564030928  1.0000
  C   C20       1.0  0.9590892283689767  0.8141925277529433  0.29645310667314295  1.0000
  C   C21       1.0  0.959088415493412  0.6857164655139045  0.7965081847079614  1.0000
  C   C22       1.0  0.540912443618786  0.3142823158213198  0.29650770115049435  1.0000
  C   C23       1.0  0.45908773469556147  0.8142824134138472  0.20349241675148658  1.0000
  C   C24       1.0  0.04091341962351884  0.18571841471475853  0.7034926005765332  1.0000
  C   C25       1.0  0.9414238820317364  0.3348913139262064  0.10105338032850372  1.0000
  C   C26       1.0  0.5585760850491527  0.6651084092805076  0.6010529994457494  1.0000
  C   C27       1.0  0.4414234688015504  0.16510933327107835  0.8989479483167996  1.0000
  C   C28       1.0  0.05857591502219059  0.8348913678388737  0.39894682286996525  1.0000
  C   C29       1.0  0.05859060694790798  0.6651532409824713  0.8990179270726044  1.0000
  C   C30       1.0  0.4414098030105127  0.3348471711266942  0.3990169361605064  1.0000
  C   C31       1.0  0.5585904681080461  0.834847233597588  0.10098297023934548  1.0000
  C   C32       1.0  0.9414100443077911  0.16515221390344662  0.6009837635965843  1.0000
  H   H1        1.0  0.08557853746715409  0.007224064920049116  0.08305751232432892  1.0000
  H   H2        1.0  0.4144218618813632  0.9927765030095708  0.5830576948614639  1.0000
  H   H3        1.0  0.5855769678713888  0.49277645400384645  0.9169422734528263  1.0000
  H   H4        1.0  0.9144233042536987  0.5072230561797494  0.4169419227034986  1.0000
  H   H5        1.0  0.9151915468960576  0.993013691183825  0.9166006941500232  1.0000
  H   H6        1.0  0.5848093041101631  0.006986353756793387  0.41660074857491186  1.0000
  H   H7        1.0  0.4151900472428053  0.5069866309087236  0.08339905483872254  1.0000
  H   H8        1.0  0.08480852579547152  0.49301426759198735  0.5833999105253372  1.0000
  H   H9        1.0  0.1483140145254789  0.3895832114004828  0.21587734109970888  1.0000
  H   H10       1.0  0.3516857503459652  0.6104162431582464  0.7158778943606271  1.0000
  H   H11       1.0  0.6483151372910088  0.11041646639980038  0.7841219343361374  1.0000
  H   H12       1.0  0.8516863420831964  0.8895839789906053  0.28412200234921975  1.0000
  H   H13       1.0  0.8515822440521996  0.6103946730164527  0.7842509787036348  1.0000
  H   H14       1.0  0.6484174779128921  0.3896052935315348  0.2842513294590858  1.0000
  H   H15       1.0  0.35158221901276415  0.8896052649974256  0.21574862785587035  1.0000
  H   H16       1.0  0.14841695025800616  0.11039376646124126  0.7157488320001559  1.0000
  H   H17       1.0  0.9539683037168106  0.3197533367292913  0.2717665720802245  1.0000
  H   H18       1.0  0.546032414987553  0.680247015619556  0.771766575548829  1.0000
  H   H19       1.0  0.45396720849734234  0.18024739824497857  0.7282332983995152  1.0000
  H   H20       1.0  0.04603202472521835  0.8197530368071876  0.22823359626585138  1.0000
  H   H21       1.0  0.046084291912299506  0.6799944604853723  0.7283179259219322  1.0000
  H   H22       1.0  0.45391602168606343  0.32000621254048844  0.22831799589195828  1.0000
  H   H23       1.0  0.5460844727220203  0.8200060862713331  0.2716820577578117  1.0000
  H   H24       1.0  0.9539157620364984  0.1799943219576477  0.7716816808086546  1.0000
  H   H25       1.0  0.8021977824840957  0.36568465324353383  0.110359056629542  1.0000
  H   H26       1.0  0.6978027248114254  0.6343154023352651  0.6103592363500685  1.0000
  H   H27       1.0  0.30219747515401435  0.13431551489144608  0.8896403727507959  1.0000
  H   H28       1.0  0.19780207122598392  0.865684830410329  0.38964067411892145  1.0000
  H   H29       1.0  0.19771970759552318  0.6340733389593346  0.8897577043589195  1.0000
  H   H30       1.0  0.3022803076983609  0.3659268797998851  0.3897580928242056  1.0000
  H   H31       1.0  0.6977200438908518  0.8659267055721788  0.11024183708437765  1.0000
  H   H32       1.0  0.8022799122400396  0.13407339722179012  0.6102417410351222  1.0000
  H   H33       1.0  0.005477199215438322  0.41239227842915915  0.050897514121484154  1.0000
  H   H34       1.0  0.4945225397121749  0.587606971809257  0.5508973183453634  1.0000
  H   H35       1.0  0.5054773131556786  0.08760686101389427  0.9491025554675768  1.0000
  H   H36       1.0  0.9945236931936263  0.9123929038151157  0.4491026964605888  1.0000
  H   H37       1.0  0.994282090082781  0.5879316472293675  0.9493089368827659  1.0000
  H   H38       1.0  0.5057177823816636  0.412067692798086  0.4493089874785179  1.0000
  H   H39       1.0  0.4942817243745991  0.9120675700346873  0.050690969781584744  1.0000
  H   H40       1.0  0.005717259807024089  0.08793223205587077  0.5506909560528952  1.0000
