# CIF file generated from CASTEP cell file
# https://gist.github.com/blake-armstrong/93facdde07a6e0a1ddb51857dd48e3f1
# Structure converted from CASTEP

data_structure

_cell_length_a    7.700108281974114
_cell_length_b    9.678270949156422
_cell_length_c    12.586322727738535
_cell_angle_alpha 90.035415238064118
_cell_angle_beta  90.000059553980549
_cell_angle_gamma 89.999997495810348

_symmetry_space_group_name_H-M 'P 1'
_symmetry_Int_Tables_number 1

loop_
_atom_site_label
_atom_site_type_symbol
_atom_site_fract_x
_atom_site_fract_y
_atom_site_fract_z
H1       H     0.087503474185911    0.008486727253268    0.082977968408959
H2       H     0.151052258033512    0.390820205576276    0.218062481373162
H3       H     0.962213086196357    0.319119177239355    0.275129256499493
H4       H     0.813822715715189    0.368737857864472    0.110827949818048
H5       H     0.012930915292662    0.409742817377084    0.048320870995654
H6       H     0.412841937747471    0.991953678610474    0.582992771340614
H7       H     0.348015298746438    0.610225839448174    0.718301869713146
H8       H     0.537238694558762    0.681474820433746    0.775316814368166
H9       H     0.685340922556824    0.631332453556990    0.610977235388063
H10      H     0.486053244081943    0.590243859621936    0.548649560459276
H11      H     0.587503421483914    0.491513124633993    0.917021966668614
H12      H     0.651050831799771    0.109180171857466    0.781937696277661
H13      H     0.462213693211995    0.180880149252431    0.724870991811330
H14      H     0.313819256912211    0.131261640410501    0.889171310784234
H15      H     0.512933113841638    0.090255751504500    0.951679884536027
H16      H     0.912841950932164    0.508048150951273    0.417006779558294
H17      H     0.848013832459210    0.889775405552846    0.281697401166765
H18      H     0.037239971431660    0.818525016930170    0.224682345681564
H19      H     0.185338009045135    0.868667224671510    0.389022969296974
H20      H     0.986055209580719    0.909755371991859    0.451349414533148
H21      H     0.912495703442559    0.991514050291435    0.917021599029895
H22      H     0.848949066415306    0.609180786904492    0.781937236251560
H23      H     0.037784699991977    0.680880415713970    0.724871176107521
H24      H     0.186178623994933    0.631262333129767    0.889171225128118
H25      H     0.987067564913474    0.590257062094033    0.951679186334304
H26      H     0.587158433043658    0.008046429029204    0.417006916526525
H27      H     0.651986862691828    0.389775644403413    0.281697805170667
H28      H     0.462759889136249    0.318524833217649    0.224682267224872
H29      H     0.314662280712538    0.368667300245941    0.389022924503432
H30      H     0.513945191539695    0.409755457002033    0.451349712932509
H31      H     0.412496382389676    0.508485436424967    0.082977683785726
H32      H     0.348946695633146    0.890820465948472    0.218062252594948
H33      H     0.537787807727653    0.819118657206459    0.275129629263171
H34      H     0.686176390212761    0.868737685213030    0.110828201341670
H35      H     0.487069223751024    0.909742791130990    0.048321279321564
H36      H     0.087158324877843    0.491952552131717    0.582992887903683
H37      H     0.151984338114937    0.110226285068301    0.718302538066322
H38      H     0.962762003735568    0.181474970579961    0.775317134369069
H39      H     0.814659908457453    0.131332476642232    0.610977293456350
H40      H     0.013946358437812    0.090244488515501    0.548650257174651
C1       C     0.120939341801565    0.170166165260879    0.198790878347140
C2       C     0.954880379754133    0.195681018737082    0.046936788076902
C3       C     0.047219474960053    0.315097837433295    0.205336555736468
C4       C     0.948529273865311    0.335237763378619    0.100883438403081
C5       C     0.379121536099333    0.830743131597220    0.698972734845438
C6       C     0.544544404438215    0.804264311689847    0.546903857818644
C7       C     0.452197224681443    0.685610368448544    0.705549875365434
C8       C     0.550658280387567    0.664909103145935    0.601054725738531
C9       C     0.620938162926010    0.329833624630742    0.801208353049070
C10      C     0.454880186488555    0.304319600358480    0.953062280688529
C11      C     0.547219271514508    0.184902745880134    0.794663522848947
C12      C     0.448528110030112    0.164761042574596    0.899116772840016
C13      C     0.879120535814357    0.669255021353882    0.301028605561590
C14      C     0.044544371990149    0.695736934002119    0.453096454141576
C15      C     0.952198075939568    0.814390025138579    0.294451125922478
C16      C     0.050658794839718    0.835088775816545    0.398947187843507
C17      C     0.879059632852607    0.829835040204072    0.801208753691285
C18      C     0.045119976673118    0.804316889942011    0.953061807463183
C19      C     0.952782479804073    0.684901030667512    0.794665185667930
C20      C     0.051472188040597    0.664760132899808    0.899116976035583
C21      C     0.620879528876205    0.169256054389900    0.301027557588620
C22      C     0.455455108221107    0.195736541909903    0.453096542034021
C23      C     0.547802799350285    0.314390258991870    0.294450369180044
C24      C     0.449341779563628    0.335088978780429    0.398946831543934
C25      C     0.379061352181828    0.670166500313127    0.198791813506344
C26      C     0.545120456522524    0.695681698731480    0.046937015806305
C27      C     0.452781877142816    0.815100272743473    0.205336741746303
C28      C     0.551470465918489    0.835239008126580    0.100884261038718
C29      C     0.120879209166027    0.330744397188376    0.698972333874807
C30      C     0.955456011454667    0.304263835523379    0.546904350484531
C31      C     0.047802444431330    0.185611162017802    0.705549384505767
C32      C     0.949341311981175    0.164910156851317    0.601054135447455
N1       N     0.061216518686412    0.110166743762274    0.104945662868682
N2       N     0.438773373733634    0.890255140225149    0.604976551816458
N3       N     0.561216997582465    0.389832968139564    0.895053723257924
N4       N     0.938774133805744    0.609745481859658    0.395024076133880
N5       N     0.938783606692216    0.889832706429866    0.895053887483390
N6       N     0.561226395790395    0.109745670674761    0.395024040735388
N7       N     0.438783767731145    0.610167412187154    0.104945473672132
N8       N     0.061226010546651    0.390255165927747    0.604976745803772
O1       O     0.213976861813711    0.111033905682588    0.263057994407153
O2       O     0.880799148062955    0.161992724670674    0.963752818493281
O3       O     0.286576840441915    0.890375213492878    0.763298300176674
O4       O     0.618386121853721    0.837455105496890    0.463546974983618
O5       O     0.713975862343292    0.388966176409903    0.736941793997847
O6       O     0.380799108159016    0.338006367835081    0.036246610490658
O7       O     0.786576708107416    0.609625553507906    0.236700587456796
O8       O     0.118386420868150    0.662545022819477    0.536452832098071
O9       O     0.786021961546186    0.888966643496997    0.736941523405539
O10      O     0.119199935714017    0.838006629142741    0.036245951439539
O11      O     0.713423946572311    0.109625106593480    0.236701039911321
O12      O     0.381613373799840    0.162544188668953    0.536453663008020
O13      O     0.286023763068206    0.611033705261949    0.263057817612801
O14      O     0.619200897461817    0.661992586124026    0.963752262592001
O15      O     0.213423150368351    0.390375293931282    0.763298736146920
O16      O     0.881613460505776    0.337455493299550    0.463546970000242
