data_image0
_chemical_formula_structural       N8O16C32H40
_chemical_formula_sum              "N8 O16 C32 H40"
_cell_length_a       7.7922469345173155
_cell_length_b       9.717804554445571
_cell_length_c       12.445621414192368
_cell_angle_alpha    90.12388931179412
_cell_angle_beta     89.98164698641547
_cell_angle_gamma    89.9638268565745

_space_group_name_H-M_alt    "P 1"
_space_group_IT_number       1

loop_
  _space_group_symop_operation_xyz
  'x, y, z'

loop_
  _atom_site_type_symbol
  _atom_site_label
  _atom_site_symmetry_multiplicity
  _atom_site_fract_x
  _atom_site_fract_y
  _atom_site_fract_z
  _atom_site_occupancy
  N   N1        1.0  0.06622955813045153  0.10770814553784065  0.10491482638570918  1.0000
  N   N2        1.0  0.43336833961241394  0.8922669165717003  0.6045328930493923  1.0000
  N   N3        1.0  0.5653320698553619  0.3920592759090772  0.8945130901628013  1.0000
  N   N4        1.0  0.9337357688459592  0.6080629165120175  0.3950645878054383  1.0000
  N   N5        1.0  0.933056534315777  0.8919975448529283  0.8950838764790209  1.0000
  N   N6        1.0  0.5658281374138265  0.1075710367499947  0.3949048425646524  1.0000
  N   N7        1.0  0.43451108515107434  0.6076830563775112  0.10505841331603656  1.0000
  N   N8        1.0  0.06498602833775688  0.3924831735817129  0.6050854119479699  1.0000
  O   O1        1.0  0.22968237383219356  0.10848727104973382  0.2589649006108306  1.0000
  O   O2        1.0  0.2706627427920649  0.8908990148860738  0.7590041714556081  1.0000
  O   O3        1.0  0.7268085042368759  0.3905326873931677  0.7394773794227885  1.0000
  O   O4        1.0  0.7711796571389953  0.6098611450955326  0.24063357449715214  1.0000
  O   O5        1.0  0.7706636014684455  0.8901439176730204  0.7405119961555717  1.0000
  O   O6        1.0  0.7304414605741868  0.10879188099962722  0.2413138393292205  1.0000
  O   O7        1.0  0.27218324779309716  0.6092754695387579  0.25966325972669346  1.0000
  O   O8        1.0  0.22775080947867  0.3909464063891276  0.7594671411779872  1.0000
  O   O9        1.0  0.8795514710198048  0.1594938046966166  0.9673942270105004  1.0000
  O   O10       1.0  0.6198300487388636  0.8409188115988897  0.4664935913359296  1.0000
  O   O11       1.0  0.3811595782468486  0.34056748579684903  0.03344239411206861  1.0000
  O   O12       1.0  0.11931097804787674  0.6589483251531154  0.5335126064824726  1.0000
  O   O13       1.0  0.11862637420088785  0.8408251643630704  0.03336724029612197  1.0000
  O   O14       1.0  0.3790864476860695  0.1591553518755266  0.5327024257148077  1.0000
  O   O15       1.0  0.6199184598367965  0.6588699061630352  0.9666754542595469  1.0000
  O   O16       1.0  0.8789888887131991  0.3412850821154554  0.4669256746560611  1.0000
  C   C1        1.0  0.1316230391224859  0.16701702550143369  0.19758631523163964  1.0000
  C   C2        1.0  0.36902249219702826  0.8328360643681328  0.6973120753614174  1.0000
  C   C3        1.0  0.6292451040854715  0.33251735061526216  0.8014647433663428  1.0000
  C   C4        1.0  0.8694168783047954  0.6677319534354627  0.3024238155015724  1.0000
  C   C5        1.0  0.8687726799269203  0.8322792295653365  0.8022519367730314  1.0000
  C   C6        1.0  0.6315532219352035  0.16703050986287232  0.30258299338048933  1.0000
  C   C7        1.0  0.3700439284189863  0.6673326573088693  0.19791604916859798  1.0000
  C   C8        1.0  0.1294726312654784  0.33293704125470036  0.6977810075866807  1.0000
  C   C9        1.0  0.9573873236960728  0.19229046440204306  0.050045558151676654  1.0000
  C   C10       1.0  0.542652235091428  0.8080833354940252  0.5492922651413719  1.0000
  C   C11       1.0  0.4573739080203753  0.3076437323776478  0.9501691690611657  1.0000
  C   C12       1.0  0.04275135559399179  0.692077880934291  0.4505788925827507  1.0000
  C   C13       1.0  0.04175134415653739  0.8077338963747115  0.9504432667280427  1.0000
  C   C14       1.0  0.45668223184764317  0.19199404781169296  0.4500510213926786  1.0000
  C   C15       1.0  0.5431407610155653  0.6918628489918853  0.04970829878250669  1.0000
  C   C16       1.0  0.9557980050565608  0.3083865845363945  0.5498438864315339  1.0000
  C   C17       1.0  0.0574672738720203  0.3097515883865866  0.20749039129433924  1.0000
  C   C18       1.0  0.4445876793131281  0.6905531323610327  0.7067937303074628  1.0000
  C   C19       1.0  0.5548922458821096  0.18987607787186758  0.7922387279020909  1.0000
  C   C20       1.0  0.944818856594559  0.8100302682121395  0.29321800155458644  1.0000
  C   C21       1.0  0.9439147124067364  0.6898080859835046  0.7927374177937226  1.0000
  C   C22       1.0  0.5566904879817337  0.30953985758307634  0.29295335400815686  1.0000
  C   C23       1.0  0.44477542859957553  0.8098700754156367  0.20739980842389008  1.0000
  C   C24       1.0  0.05456970684670871  0.1905144830958162  0.7070744715605334  1.0000
  C   C25       1.0  0.9533773204970296  0.3301674599593691  0.10516341808197824  1.0000
  C   C26       1.0  0.5488450840001617  0.6706456622171837  0.604433404338895  1.0000
  C   C27       1.0  0.45168136932111963  0.1699419542869027  0.8949618101136161  1.0000
  C   C28       1.0  0.04885931219434327  0.8296749906815253  0.3956642600625408  1.0000
  C   C29       1.0  0.04734142695866595  0.6699335420064857  0.8953525956527862  1.0000
  C   C30       1.0  0.4522656341071062  0.32976818610665565  0.39526942297288076  1.0000
  C   C31       1.0  0.5489261224590037  0.8295351699470487  0.10500651193307757  1.0000
  C   C32       1.0  0.949711372922063  0.17092515425770072  0.6049328130111072  1.0000
  H   H1        1.0  0.09182181629733407  0.005873716589460186  0.08078627841606152  1.0000
  H   H2        1.0  0.40680365807542623  0.9938174748817669  0.5805962927798762  1.0000
  H   H3        1.0  0.5915168156895086  0.4937329566611392  0.9185566448113117  1.0000
  H   H4        1.0  0.907201342965426  0.5065129013146366  0.41888388395905046  1.0000
  H   H5        1.0  0.9069392980293899  0.9937035765065669  0.9190728012381303  1.0000
  H   H6        1.0  0.5918722711486161  0.005903100802075715  0.4187997402324136  1.0000
  H   H7        1.0  0.40844308193195084  0.5059374364838178  0.08111431623600956  1.0000
  H   H8        1.0  0.09143906151162694  0.4940571694829669  0.5811603160442317  1.0000
  H   H9        1.0  0.16003179201116902  0.3866125771078861  0.2189677687321233  1.0000
  H   H10       1.0  0.3426254422611551  0.6131614296334932  0.7179875781540045  1.0000
  H   H11       1.0  0.6575761073884208  0.112984643854473  0.7808702308272626  1.0000
  H   H12       1.0  0.8428483533467916  0.8874986497878675  0.28206678532720053  1.0000
  H   H13       1.0  0.8418305324659195  0.6126076750517369  0.7810616109267061  1.0000
  H   H14       1.0  0.6589032462411437  0.386675861579144  0.28171206564965445  1.0000
  H   H15       1.0  0.34237142524985587  0.8870692324145543  0.2185649899246481  1.0000
  H   H16       1.0  0.15714186278899284  0.1133611277305698  0.7175557500265655  1.0000
  H   H17       1.0  0.9771701084608198  0.3113170014681405  0.2806253250666568  1.0000
  H   H18       1.0  0.5249122466109472  0.6894591094900319  0.7798725182090747  1.0000
  H   H19       1.0  0.4741771518496205  0.1879442570831302  0.7193459563869569  1.0000
  H   H20       1.0  0.02522315530349348  0.8111797996051212  0.22016107552045344  1.0000
  H   H21       1.0  0.024853593275815874  0.6885193467092057  0.7198953868455427  1.0000
  H   H22       1.0  0.4765544614807494  0.31061235140647775  0.21979280576843116  1.0000
  H   H23       1.0  0.5249742598637688  0.8115724274882671  0.28051443371370405  1.0000
  H   H24       1.0  0.975104391360259  0.18863351410640508  0.7805380140100017  1.0000
  H   H25       1.0  0.8200541819793786  0.3630255739872571  0.11878707525656909  1.0000
  H   H26       1.0  0.6829014592909829  0.6397409055622812  0.6179164066253854  1.0000
  H   H27       1.0  0.31781693907053965  0.13818793933603754  0.8818882431267749  1.0000
  H   H28       1.0  0.18283479482213782  0.8607125529196334  0.38223605951238526  1.0000
  H   H29       1.0  0.18119281531322795  0.6380790952715801  0.8821801386308918  1.0000
  H   H30       1.0  0.3187652250163542  0.36215515611336635  0.3817461578396407  1.0000
  H   H31       1.0  0.6828427649202116  0.8606851490133033  0.1186249422788356  1.0000
  H   H32       1.0  0.8157033851492134  0.14027252221714478  0.618802312395353  1.0000
  H   H33       1.0  0.012937152245577899  0.40514328014408957  0.05011545130512652  1.0000
  H   H34       1.0  0.4909024578870093  0.5944541040994366  0.5494929122898045  1.0000
  H   H35       1.0  0.5110352402091226  0.09431135521936826  0.9495915577843388  1.0000
  H   H36       1.0  0.9906360393635654  0.9056909274204374  0.4507008013611944  1.0000
  H   H37       1.0  0.9882816604427023  0.5944074678028985  0.9501750434003343  1.0000
  H   H38       1.0  0.5113847171250973  0.40506477940898444  0.45047011289831007  1.0000
  H   H39       1.0  0.4907650712216664  0.9054623206971983  0.05015811970619484  1.0000
  H   H40       1.0  0.007246361160072379  0.09470070265236022  0.5497896706156669  1.0000
