data_cif

_audit_creation_method             'generated by GULP'

_symmetry_space_group_name_H-M     'P B C A         '
_symmetry_Int_Tables_number        61
_symmetry_cell_setting             Orthorhombic

_cell_length_a                       7.357024
_cell_length_b                       9.270907
_cell_length_c                      13.259589
_cell_angle_alpha                   90.000000
_cell_angle_beta                    90.000000
_cell_angle_gamma                   90.000000

loop_
_atom_site_label
_atom_site_fract_x
_atom_site_fract_y
_atom_site_fract_z
_atom_site_occupancy
  N6          0.02813      0.12248      0.10326  1.0000
  O2          0.18167      0.13919      0.24988  1.0000
  O2          0.84610      0.14820      0.96765  1.0000
  C1          0.08274      0.19174      0.18661  1.0000
  C1          0.90928      0.19487      0.04574  1.0000
  C5          0.99949      0.34169      0.18757  1.0000
  C5          0.87222      0.34104      0.09322  1.0000
  H4          0.07133      0.02177      0.08688  1.0000
  H3          0.10694      0.42293      0.18092  1.0000
  H3          0.92431      0.35786      0.25793  1.0000
  H3          0.72862      0.34829      0.11451  1.0000
  H3          0.90516      0.42709      0.03993  1.0000
