data_C4H5NO2
_audit_creation_method 'chmpy python library version 1.0a1'
_cell_length_a 8.102041
_cell_length_b 6.89201
_cell_length_c 14.367182
_cell_angle_alpha 90.0
_cell_angle_beta 90.0
_cell_angle_gamma 90.0
loop_
_symmetry_equiv_pos_site_id
_symmetry_equiv_pos_as_xyz
                   1 -x,-y,-z
                   2 +x,+y,+z
                   3 -x,1/2+y,1/2-z
                   4 +x,1/2-y,1/2+z
                   5 1/2-x,-y,1/2+z
                   6 1/2+x,+y,1/2-z
                   7 1/2-x,1/2+y,+z
                   8 1/2+x,1/2-y,-z
loop_
_atom_site_label
_atom_site_type_symbol
_atom_site_fract_x
_atom_site_fract_y
_atom_site_fract_z
_atom_site_occupancy
N N       0.050069000000       0.187953000000       0.101889000000       1.000000000000
O O       0.221030000000       0.263101000000       0.230207000000       1.000000000000
O O       0.855280000000       0.199621000000       0.980800000000       1.000000000000
C C       0.110242000000       0.303749000000       0.174888000000       1.000000000000
C C       0.918235000000       0.267830000000       0.051571000000       1.000000000000
C C       0.007464000000       0.488720000000       0.174849000000       1.000000000000
C C       0.871043000000       0.456329000000       0.099966000000       1.000000000000
H H       0.103047000000       0.057299000000       0.081181000000       1.000000000000
H H       0.087242000000       0.615634000000       0.158269000000       1.000000000000
H H       0.954529000000       0.512472000000       0.245263000000       1.000000000000
H H       0.746893000000       0.440589000000       0.132291000000       1.000000000000
H H       0.862232000000       0.576960000000       0.048853000000       1.000000000000
#END