data_SUCCIN01.b3lyp.6-311G**.dma4.-90.8112.1.4931
_audit_creation_method 'generated by cspy2.0'
_cell_length_a 7.7407
_cell_length_b 10.0008
_cell_length_c 11.388
_cell_angle_alpha 90.0
_cell_angle_beta 90.0
_cell_angle_gamma 90.0
loop_
_symmetry_equiv_pos_site_id
_symmetry_equiv_pos_as_xyz
1 +x,+y,+z
loop_
_atom_site_label
_atom_site_type_symbol
_atom_site_fract_x
_atom_site_fract_y
_atom_site_fract_z
_atom_site_occupancy
N1 N       0.043968490000       0.115207120000       0.120972280000       1.000000000000
N2 N       0.973175820000       0.865319250000       0.886716700000       1.000000000000
N3 N       0.971178000000       0.615207120000       0.395747850000       1.000000000000
N4 N       0.041970680000       0.365319250000       0.630003440000       1.000000000000
N5 N       0.471178000000       0.812568480000       0.620972280000       1.000000000000
N6 N       0.541970670000       0.062456340000       0.386716700000       1.000000000000
N7 N       0.473175810000       0.562456350000       0.130003440000       1.000000000000
N8 N       0.543968490000       0.312568470000       0.895747840000       1.000000000000
O1 O       0.162962070000       0.159963100000       0.299851720000       1.000000000000
O2 O      -0.101361060000       0.121968220000      -0.053692250000       1.000000000000
O3 O       0.832653260000       0.812072650000       0.717085560000       1.000000000000
O4 O       1.134767810000       0.865430870000       1.054754870000       1.000000000000
O5 O       0.852184430000       0.659963100000       0.216868410000       1.000000000000
O6 O       1.116507550000       0.621968220000       0.570412380000       1.000000000000
O7 O       0.182493230000       0.312072650000       0.799634570000       1.000000000000
O8 O      -0.119621310000       0.365430870000       0.461965250000       1.000000000000
O9 O       0.352184430000       0.767812490000       0.799851720000       1.000000000000
O10 O       0.616507560000       0.805807370000       0.446307760000       1.000000000000
O11 O       0.682493230000       0.115702940000       0.217085560000       1.000000000000
O12 O       0.380378670000       0.062344730000       0.554754870000       1.000000000000
O13 O       0.332653250000       0.615702940000       0.299634570000       1.000000000000
O14 O       0.634767810000       0.562344720000      -0.038034750000       1.000000000000
O15 O       0.662962050000       0.267812490000       0.716868400000       1.000000000000
O16 O       0.398638940000       0.305807380000       1.070412380000       1.000000000000
C1 C       0.086497820000       0.197393140000       0.213164360000       1.000000000000
C2 C      -0.046613630000       0.177529150000       0.034276440000       1.000000000000
C3 C       0.019810110000       0.334478350000       0.185321290000       1.000000000000
C4 C      -0.065152010000       0.321776090000       0.066390100000       1.000000000000
C5 C       0.914049620000       0.777999480000       0.802759850000       1.000000000000
C6 C       1.066344510000       0.805670540000       0.973596180000       1.000000000000
C7 C       0.970672720000       0.640250360000       0.837515090000       1.000000000000
C8 C       1.068359760000       0.658354190000       0.951280000000       1.000000000000
C9 C       0.928648680000       0.697393140000       0.303555750000       1.000000000000
C10 C       1.061760110000       0.677529150000       0.482443690000       1.000000000000
C11 C       0.995336380000       0.834478350000       0.331398840000       1.000000000000
C12 C       1.080298490000       0.821776090000       0.450330020000       1.000000000000
C13 C       0.101096870000       0.277999480000       0.713960280000       1.000000000000
C14 C      -0.051198010000       0.305670540000       0.543123950000       1.000000000000
C15 C       0.044473770000       0.140250360000       0.679205050000       1.000000000000
C16 C      -0.053213270000       0.158354190000       0.565440130000       1.000000000000
C17 C       0.428648680000       0.730382450000       0.713164360000       1.000000000000
C18 C       0.561760110000       0.750246450000       0.534276430000       1.000000000000
C19 C       0.495336380000       0.593297240000       0.685321290000       1.000000000000
C20 C       0.580298500000       0.605999510000       0.566390090000       1.000000000000
C21 C       0.601096870000       0.149776110000       0.302759850000       1.000000000000
C22 C       0.448801980000       0.122105060000       0.473596180000       1.000000000000
C23 C       0.544473770000       0.287525230000       0.337515090000       1.000000000000
C24 C       0.446786730000       0.269421410000       0.451280010000       1.000000000000
C25 C       0.414049610000       0.649776110000       0.213960280000       1.000000000000
C26 C       0.566344490000       0.622105050000       0.043123960000       1.000000000000
C27 C       0.470672730000       0.787525230000       0.179205040000       1.000000000000
C28 C       0.568359770000       0.769421400000       0.065440130000       1.000000000000
C29 C       0.586497810000       0.230382450000       0.803555750000       1.000000000000
C30 C       0.453386380000       0.250246450000       0.982443690000       1.000000000000
C31 C       0.519810110000       0.093297240000       0.831398830000       1.000000000000
C32 C       0.434848000000       0.105999510000       0.950330020000       1.000000000000
H1 H       0.070532590000       0.032818620000       0.115720670000       1.000000000000
H2 H       0.116250650000       0.397220940000       0.188882460000       1.000000000000
H3 H      -0.056696300000       0.361836540000       0.246977770000       1.000000000000
H4 H      -0.185339540000       0.339782690000       0.066150550000       1.000000000000
H5 H      -0.005375170000       0.369547340000       0.006132040000       1.000000000000
H6 H       0.954808670000       0.949248120000       0.887121720000       1.000000000000
H7 H       0.868601240000       0.583243040000       0.842603710000       1.000000000000
H8 H       1.038095260000       0.603116250000       0.774910300000       1.000000000000
H9 H       1.186339330000       0.633398180000       0.947707460000       1.000000000000
H10 H       1.010569920000       0.619694210000       1.017206480000       1.000000000000
H11 H       0.944613910000       0.532818620000       0.400999470000       1.000000000000
H12 H       0.898895830000       0.897220940000       0.327837660000       1.000000000000
H13 H       1.071842800000       0.861836540000       0.269742360000       1.000000000000
H14 H       1.200486030000       0.839782690000       0.450569580000       1.000000000000
H15 H       1.020521650000       0.869547330000       0.510588100000       1.000000000000
H16 H       0.060337840000       0.449248110000       0.629598400000       1.000000000000
H17 H       0.146545250000       0.083243050000       0.674116420000       1.000000000000
H18 H      -0.022948770000       0.103116250000       0.741809830000       1.000000000000
H19 H      -0.171192820000       0.133398200000       0.569012670000       1.000000000000
H20 H       0.004576580000       0.119694230000       0.499513660000       1.000000000000
H21 H       0.444613910000       0.894956970000       0.615720670000       1.000000000000
H22 H       0.398895830000       0.530554650000       0.688882460000       1.000000000000
H23 H       0.571842800000       0.565939050000       0.746977770000       1.000000000000
H24 H       0.700486030000       0.587992900000       0.566150540000       1.000000000000
H25 H       0.520521660000       0.558228270000       0.506132030000       1.000000000000
H26 H       0.560337820000      -0.021472520000       0.387121720000       1.000000000000
H27 H       0.646545250000       0.344532550000       0.342603710000       1.000000000000
H28 H       0.477051230000       0.324659350000       0.274910300000       1.000000000000
H29 H       0.328807160000       0.294377400000       0.447707460000       1.000000000000
H30 H       0.504576580000       0.308081370000       0.517206470000       1.000000000000
H31 H       0.454808650000       0.478527480000       0.129598390000       1.000000000000
H32 H       0.368601250000       0.844532560000       0.174116420000       1.000000000000
H33 H       0.538095270000       0.824659340000       0.241809830000       1.000000000000
H34 H       0.686339330000       0.794377390000       0.069012680000       1.000000000000
H35 H       0.510569930000       0.808081380000      -0.000486340000       1.000000000000
H36 H       0.570532580000       0.394956970000       0.900999460000       1.000000000000
H37 H       0.616250650000       0.030554660000       0.827837660000       1.000000000000
H38 H       0.443303690000       0.065939050000       0.769742360000       1.000000000000
H39 H       0.314660480000       0.087992900000       0.950569580000       1.000000000000
H40 H       0.494624840000       0.058228260000       1.010588100000       1.000000000000
#END