data_SUCACB10.b3lyp.6-311G**.dma4.-237.6654.1.558
_audit_creation_method 'generated by cspy2.0'
_cell_length_a 5.9101
_cell_length_b 6.7649
_cell_length_c 7.5442
_cell_angle_alpha 90.0
_cell_angle_beta 123.43090000000001
_cell_angle_gamma 90.0
loop_
_symmetry_equiv_pos_site_id
_symmetry_equiv_pos_as_xyz
1 +x,+y,+z
loop_
_atom_site_label
_atom_site_type_symbol
_atom_site_fract_x
_atom_site_fract_y
_atom_site_fract_z
_atom_site_occupancy
C1 C       0.110728610000       0.056650460000       0.096802850000       1.000000000000
C2 C       0.079114130000       0.053169860000       0.278730400000       1.000000000000
C3 C      -0.110728610000      -0.056650460000      -0.096802850000       1.000000000000
C4 C      -0.079114130000      -0.053169860000      -0.278730400000       1.000000000000
C5 C       0.401007930000       0.556650460000       0.010292850000       1.000000000000
C6 C       0.432622410000       0.553169840000      -0.171634700000       1.000000000000
C7 C       0.622465150000       0.443349530000       0.203898560000       1.000000000000
C8 C       0.590850660000       0.446830140000       0.385826100000       1.000000000000
O1 O      -0.127500880000      -0.004832560000       0.267969840000       1.000000000000
O2 O       0.289712670000       0.125094270000       0.454519050000       1.000000000000
O3 O       0.127500880000       0.004832560000      -0.267969840000       1.000000000000
O4 O      -0.289712670000      -0.125094270000      -0.454519050000       1.000000000000
O5 O       0.639237420000       0.495167410000      -0.160874130000       1.000000000000
O6 O       0.222023870000       0.625094250000      -0.347423330000       1.000000000000
O7 O       0.384235660000       0.504832570000       0.375065540000       1.000000000000
O8 O       0.801449210000       0.374905720000       0.561614730000       1.000000000000
H1 H       0.305890510000      -0.008761360000       0.147629640000       1.000000000000
H2 H       0.106460380000       0.209916840000       0.050905870000       1.000000000000
H3 H       0.318669830000       0.264746610000       0.431174340000       1.000000000000
H4 H      -0.318669830000      -0.264746610000      -0.431174340000       1.000000000000
H5 H      -0.305890510000       0.008761360000      -0.147629640000       1.000000000000
H6 H      -0.106460380000      -0.209916840000      -0.050905870000       1.000000000000
H7 H       0.205846020000       0.491238630000      -0.040533940000       1.000000000000
H8 H       0.405276170000       0.709916840000       0.056189850000       1.000000000000
H9 H       0.193066710000       0.764746590000      -0.324078630000       1.000000000000
H10 H       0.830406360000       0.235253380000       0.538270020000       1.000000000000
H11 H       0.817627070000       0.508761350000       0.254725340000       1.000000000000
H12 H       0.618196900000       0.290083140000       0.158001550000       1.000000000000
#END