data_image0
_chemical_formula_structural       C8O8H12
_chemical_formula_sum              "C8 O8 H12"
_cell_length_a       5.126
_cell_length_b       8.88
_cell_length_c       7.619
_cell_angle_alpha    90.0
_cell_angle_beta     133.60000000000002
_cell_angle_gamma    90.0

_space_group_name_H-M_alt    "P 1"
_space_group_IT_number       1

loop_
  _space_group_symop_operation_xyz
  'x, y, z'

loop_
  _atom_site_type_symbol
  _atom_site_label
  _atom_site_symmetry_multiplicity
  _atom_site_fract_x
  _atom_site_fract_y
  _atom_site_fract_z
  _atom_site_occupancy
  C   C1        1.0  0.10413325905360347  0.06501042263454876  0.08872893490119756  1.0000
  C   C2        1.0  0.39586234974285534  0.5650126743834046  0.9112702598886794  1.0000
  C   C3        1.0  0.89646753869433  0.9349311559210419  0.9111743902844112  1.0000
  C   C4        1.0  0.6035292535641482  0.43493410425126894  0.08882523139103167  1.0000
  C   C5        1.0  0.05872929139578726  0.06743971423707068  0.2632537897558964  1.0000
  C   C6        1.0  0.4412682703680741  0.567436554372094  0.7367461454331956  1.0000
  C   C7        1.0  0.9417612128290908  0.9326567079724662  0.7366349023417976  1.0000
  C   C8        1.0  0.5582336965397086  0.4326560786359826  0.2633634778754853  1.0000
  O   O1        1.0  0.8718482712659796  0.9795014103806272  0.25872746917197664  1.0000
  O   O2        1.0  0.628166902954596  0.4795008478133963  0.741286889269268  1.0000
  O   O3        1.0  0.12783138859382182  0.02082610117472853  0.7406970997725361  1.0000
  O   O4        1.0  0.3721483020067643  0.5208187351588567  0.25929641056561503  1.0000
  O   O5        1.0  0.23417958443607748  0.18016929382143881  0.433263390296209  1.0000
  O   O6        1.0  0.26582472837768567  0.6801652174250123  0.5667356663902481  1.0000
  O   O7        1.0  0.7666550535953004  0.8197855588673006  0.5667552554302394  1.0000
  O   O8        1.0  0.7333602912334454  0.3197893876487503  0.43324987183522956  1.0000
  H   H1        1.0  0.39200946596811226  0.05735513873492929  0.1891494917275523  1.0000
  H   H2        1.0  0.10798761190760817  0.5573566252612332  0.8108496403515841  1.0000
  H   H3        1.0  0.6085373689640091  0.9426336971133167  0.8105471269212166  1.0000
  H   H4        1.0  0.8914587206278267  0.44263676732500035  0.1894494458165324  1.0000
  H   H5        1.0  0.007837605395728753  0.17349705674843066  0.991473407183891  1.0000
  H   H6        1.0  0.4921544930912355  0.6735005090497208  0.008524043799755753  1.0000
  H   H7        1.0  0.992474735617067  0.826392469335108  0.008261974571743672  1.0000
  H   H8        1.0  0.5075176144757209  0.3263963571822214  0.9917347314070931  1.0000
  H   H9        1.0  0.4038155146254999  0.23752136792504125  0.43621549620714656  1.0000
  H   H10       1.0  0.09618669453814055  0.7375178033736692  0.563781045290026  1.0000
  H   H11       1.0  0.5974418214373796  0.7622744138203915  0.5639794481531134  1.0000
  H   H12       1.0  0.9025790527436995  0.2622838932407569  0.4360249325576553  1.0000
