# CIF file generated from CASTEP cell file
# https://gist.github.com/blake-armstrong/93facdde07a6e0a1ddb51857dd48e3f1
# Structure converted from CASTEP

data_structure

_cell_length_a    5.117072372476857
_cell_length_b    7.924888790443124
_cell_length_c    8.472925166237578
_cell_angle_alpha 89.994258562224445
_cell_angle_beta  133.606025326291757
_cell_angle_gamma 90.008022739608450

_symmetry_space_group_name_H-M 'P 1'
_symmetry_Int_Tables_number 1

loop_
_atom_site_label
_atom_site_type_symbol
_atom_site_fract_x
_atom_site_fract_y
_atom_site_fract_z
H1       H     0.399543122924287    0.049692420297241    0.182441849147351
H2       H     0.033571161688475    0.193166920030232    0.022993766290143
H3       H     0.423866310365184    0.232377812260499    0.422156094868956
H4       H    -0.399544368682454   -0.049691605838623   -0.182443400772213
H5       H    -0.033573944594295   -0.193166680922069   -0.022994427992779
H6       H     0.100457704082861    0.549668293726204   -0.182455210606287
H7       H     0.466435995995949    0.693179213391641   -0.023064727923213
H8       H     0.076108278405949    0.732321435470944   -0.422208714474295
H9       H     0.899540006893411    0.450331120545878    0.182453865197383
H10      H     0.533561313277837    0.306820530895114    0.023064261924426
H11      H    -0.423866501892732   -0.232377468620248   -0.422156270160705
H12      H     0.923891087476300    0.267678844652995    0.422208073335960
C1       C     0.112073862715881    0.064736340353489    0.091163344320232
C2       C     0.066171337252557    0.050249070789163    0.248105401416929
C3       C    -0.112073650609425   -0.064735675609156   -0.091162631375206
C4       C    -0.066167985138830   -0.050250172250900   -0.248103995705259
C5       C     0.387929748025438    0.564727257706772   -0.091179166226475
C6       C     0.433747773485725    0.550204613982743   -0.248155963392447
C7       C     0.612067919420985    0.435272744243921    0.091177929489384
C8       C     0.566253169067964    0.449795548632140    0.248156606150221
O1       O    -0.126464611919592   -0.050586395280886    0.235530620901819
O2       O     0.252946699855245    0.165301029446791    0.414796314303762
O3       O     0.126469849042383    0.050584844981800   -0.235528133775591
O4       O    -0.252946167307771   -0.165300955313726   -0.414796240817821
O5       O     0.626290632749979    0.449354154224416   -0.235606904504102
O6       O     0.246961991713327    0.665238305564561   -0.414875621893259
O7       O     0.373710995562326    0.550646292041841    0.235608059162654
O8       O     0.753038270143036    0.334762160597217    0.414875223110423
