data_cif

_audit_creation_method             'generated by GULP'

_symmetry_space_group_name_H-M     'P 1             '
_symmetry_Int_Tables_number        1
_symmetry_cell_setting             Triclinic   

_cell_length_a                       5.363693
_cell_length_b                       9.261411
_cell_length_c                       8.628728
_cell_angle_alpha                   89.999756
_cell_angle_beta                   143.537968
_cell_angle_gamma                   90.000958

loop_
_atom_site_label
_atom_site_fract_x
_atom_site_fract_y
_atom_site_fract_z
_atom_site_occupancy
  C4          0.05352      0.06651      0.08258  1.0000
  C4          0.05330      0.56651      0.45312  1.0000
  C4          0.05331      0.94848      0.95313  1.0000
  C4          0.05353      0.44848      0.58258  1.0000
  C2          0.05340      0.00438      0.24635  1.0000
  C2          0.05343      0.50438      0.28935  1.0000
  C2          0.05342      0.01061      0.78935  1.0000
  C2          0.05341      0.51061      0.74635  1.0000
  O6          0.05318      0.87594      0.27620  1.0000
  O6          0.05364      0.37595      0.25950  1.0000
  O6          0.05364      0.13904      0.75951  1.0000
  O6          0.05319      0.63904      0.77620  1.0000
  O3          0.05357      0.10372      0.35901  1.0000
  O3          0.05326      0.60372      0.17670  1.0000
  O3          0.05323      0.91127      0.67669  1.0000
  O3          0.05358      0.41127      0.85901  1.0000
  H1          0.33067      0.13582      0.20865  1.0000
  H1          0.77614      0.63581      0.32704  1.0000
  H1          0.77616      0.87917      0.82706  1.0000
  H1          0.33069      0.37918      0.70866  1.0000
  H1          0.77663      0.13594      0.93167  1.0000
  H1          0.33017      0.63595      0.60402  1.0000
  H1          0.33020      0.87905      0.10404  1.0000
  H1          0.77666      0.37905      0.43168  1.0000
  H5          0.05366      0.19751      0.30572  1.0000
  H5          0.05317      0.69750      0.22999  1.0000
  H5          0.05315      0.81748      0.72998  1.0000
  H5          0.05367      0.31748      0.80572  1.0000
