data_image0
_chemical_formula_structural       C8O8H12
_chemical_formula_sum              "C8 O8 H12"
_cell_length_a       5.009214852963208
_cell_length_b       7.891889104379849
_cell_length_c       8.606905350263121
_cell_angle_alpha    89.96711099123308
_cell_angle_beta     133.51918807919375
_cell_angle_gamma    89.98896154251078

_space_group_name_H-M_alt    "P 1"
_space_group_IT_number       1

loop_
  _space_group_symop_operation_xyz
  'x, y, z'

loop_
  _atom_site_type_symbol
  _atom_site_label
  _atom_site_symmetry_multiplicity
  _atom_site_fract_x
  _atom_site_fract_y
  _atom_site_fract_z
  _atom_site_occupancy
  C   C1        1.0  0.11554960409641639  0.06449240230238928  0.08885529119397988  1.0000
  C   C2        1.0  0.38428560456263183  0.5642294161536466  0.9110087894317437  1.0000
  C   C3        1.0  0.8831985481893696  0.9360970689078507  0.910486473320438  1.0000
  C   C4        1.0  0.6173570597986913  0.43592628931129873  0.0897825946812894  1.0000
  C   C5        1.0  0.06834676082462372  0.05204766089773893  0.24205513512312904  1.0000
  C   C6        1.0  0.4313326842839011  0.5516680747094641  0.7577685724553334  1.0000
  C   C7        1.0  0.9302807790292967  0.9483245356665145  0.7572640904045991  1.0000
  C   C8        1.0  0.5689006457265071  0.44761157260261203  0.24240820674302418  1.0000
  O   O1        1.0  0.8707200691637909  0.9516849165215177  0.2300488455202113  1.0000
  O   O2        1.0  0.6272889856525742  0.45054295230903485  0.7691326361349995  1.0000
  O   O3        1.0  0.1267733064831295  0.04901887275253126  0.7686500536971707  1.0000
  O   O4        1.0  0.37135214232558955  0.5480802701631562  0.2304038950680142  1.0000
  O   O5        1.0  0.2571642088443227  0.16760641299713633  0.4039254565201439  1.0000
  O   O6        1.0  0.24370634951665615  0.6678241326057496  0.5962797924616776  1.0000
  O   O7        1.0  0.7426746900507596  0.8322272722766006  0.5960630940299301  1.0000
  O   O8        1.0  0.7568790128819637  0.3314812907091025  0.4039034668013381  1.0000
  H   H1        1.0  0.40975109536356297  0.047221800789235525  0.1778037884774852  1.0000
  H   H2        1.0  0.09017721729071179  0.5467846839518212  0.8221457998278809  1.0000
  H   H3        1.0  0.5889534016943353  0.9534582794521917  0.8214566434004239  1.0000
  H   H4        1.0  0.9116660798466079  0.4536709459582042  0.17919964167012625  1.0000
  H   H5        1.0  0.03871385783976211  0.1944567644106851  0.021849750272520785  1.0000
  H   H6        1.0  0.4602876374859965  0.6942050252435871  0.9776297737249923  1.0000
  H   H7        1.0  0.9598377273859683  0.8061574519270798  0.9775609160352591  1.0000
  H   H8        1.0  0.5421460272737515  0.30602980292900966  0.022941116974704245  1.0000
  H   H9        1.0  0.4384556711968468  0.23351709721068473  0.41348823080090424  1.0000
  H   H10       1.0  0.06335951058646663  0.7342015412407272  0.5871384883152483  1.0000
  H   H11       1.0  0.5626133264770559  0.7659260560856715  0.5872451339275342  1.0000
  H   H12       1.0  0.9381841453122801  0.26549662257468676  0.4135115801648713  1.0000
