data_image0
_chemical_formula_structural       C10O8H24
_chemical_formula_sum              "C10 O8 H24"
_cell_length_a       5.9967214469204375
_cell_length_b       5.98191814404116
_cell_length_c       8.781686294482318
_cell_angle_alpha    90.03141839983493
_cell_angle_beta     90.14007624333364
_cell_angle_gamma    90.02064525810175

_space_group_name_H-M_alt    "P 1"
_space_group_IT_number       1

loop_
  _space_group_symop_operation_xyz
  'x, y, z'

loop_
  _atom_site_type_symbol
  _atom_site_label
  _atom_site_symmetry_multiplicity
  _atom_site_fract_x
  _atom_site_fract_y
  _atom_site_fract_z
  _atom_site_occupancy
  C   C1        1.0  1.1035444591714983e-06  0.9998275413272684  0.9999093635789461  1.0000
  C   C2        1.0  0.5000017256052135  0.4998269056121931  0.4999091583091743  1.0000
  C   C3        1.0  0.1622852462998193  0.13049086573585886  0.10053775124921617  1.0000
  C   C4        1.0  0.6622822544164714  0.6304862984398794  0.6005394305299744  1.0000
  C   C5        1.0  0.8676709194244803  0.1605633210927407  0.8992685005892042  1.0000
  C   C6        1.0  0.36767500867759806  0.6605584442807592  0.3992658400716623  1.0000
  C   C7        1.0  0.8420560725133018  0.8693396971087566  0.10330289483555267  1.0000
  C   C8        1.0  0.34205875720696316  0.3693436524045026  0.6033044819506822  1.0000
  C   C9        1.0  0.1282903116525743  0.8394334546342234  0.8968548872630698  1.0000
  C   C10       1.0  0.6282876610159284  0.33943719734299016  0.3968530770764319  1.0000
  O   O1        1.0  0.3182789861111001  0.2544472890445063  0.012791212272225792  1.0000
  O   O2        1.0  0.8182714919027881  0.7544461561631014  0.5127923811771617  1.0000
  O   O3        1.0  0.7449636285653127  0.3175970060547472  0.9872085502886212  1.0000
  O   O4        1.0  0.24496456548843193  0.8175873220937114  0.4872068210291566  1.0000
  O   O5        1.0  0.6818035102727134  0.7450889166395244  0.01875426767261989  1.0000
  O   O6        1.0  0.18181030506504584  0.24508950163859855  0.5187552800440408  1.0000
  O   O7        1.0  0.2554295971234287  0.6819365850557907  0.9817909086781471  1.0000
  O   O8        1.0  0.7554275919587318  0.1819431984520176  0.48178961700947015  1.0000
  H   H1        1.0  0.2562134980423102  0.011609031651979948  0.1726706335341738  1.0000
  H   H2        1.0  0.7562164220144474  0.5116062060847124  0.6726722438569013  1.0000
  H   H3        1.0  0.9847921862693061  0.25358492138295274  0.8255930241143653  1.0000
  H   H4        1.0  0.48479580568800407  0.7535880597556787  0.3255921412233644  1.0000
  H   H5        1.0  0.7518795415021965  0.9883658636031971  0.17730930155046268  1.0000
  H   H6        1.0  0.2518762014910049  0.4883679115043253  0.6773113956002867  1.0000
  H   H7        1.0  0.00808850138904906  0.7456983716401987  0.825553927750336  1.0000
  H   H8        1.0  0.5080859036423482  0.24569670923726364  0.32555418890123794  1.0000
  H   H9        1.0  0.06769734134025969  0.24267085924868548  0.1770106509020396  1.0000
  H   H10       1.0  0.5676978705131474  0.7426727408962341  0.6770080700062848  1.0000
  H   H11       1.0  0.7544726993514799  0.06404728097300572  0.8242996355226238  1.0000
  H   H12       1.0  0.25446839640588775  0.5640456699686791  0.3243021093596467  1.0000
  H   H13       1.0  0.940172930764635  0.7571184403919432  0.17787238054798898  1.0000
  H   H14       1.0  0.440171532605296  0.25711547373484317  0.6778696943758288  1.0000
  H   H15       1.0  0.23743694907085702  0.9360214934536971  0.8196493486685282  1.0000
  H   H16       1.0  0.7374398722652982  0.43602311226685536  0.3196506423261194  1.0000
  H   H17       1.0  0.26764880395082224  0.41372624928387464  0.9971468057532724  1.0000
  H   H18       1.0  0.7676506856495934  0.9137275312421842  0.49714519510474703  1.0000
  H   H19       1.0  0.5853561928662079  0.2678993321554052  0.0013058981988172376  1.0000
  H   H20       1.0  0.08535364381541877  0.7679023429779408  0.5013073974938275  1.0000
  H   H21       1.0  0.7321414006334592  0.5859183518532465  0.0022839526982952616  1.0000
  H   H22       1.0  0.23213881585585885  0.08591643379303124  0.5022822324111609  1.0000
  H   H23       1.0  0.4133232302047091  0.7346146464886069  0.9988882058234446  1.0000
  H   H24       1.0  0.9133232622708579  0.23461216595756357  0.4988881742520773  1.0000
