data_PERYTO03.b3lyp.6-311G**.dma4.-81.3957.1.342
_audit_creation_method 'generated by cspy2.0'
_cell_length_a 6.2021
_cell_length_b 6.1599
_cell_length_c 8.8243
_cell_angle_alpha 88.5461
_cell_angle_beta 91.0263
_cell_angle_gamma 89.268
loop_
_symmetry_equiv_pos_site_id
_symmetry_equiv_pos_as_xyz
1 +x,+y,+z
loop_
_atom_site_label
_atom_site_type_symbol
_atom_site_fract_x
_atom_site_fract_y
_atom_site_fract_z
_atom_site_occupancy
C1 C      -0.000000000000       0.000000000000      -0.000000000000       1.000000000000
C2 C      -0.130638230000       0.163329520000      -0.106202800000       1.000000000000
C3 C      -0.148915590000      -0.133761240000       0.107987780000       1.000000000000
C4 C       0.122868220000      -0.147132120000      -0.112958960000       1.000000000000
C5 C       0.156685600000       0.117563850000       0.111174000000       1.000000000000
C6 C       0.504597430000       0.490206990000       0.496534360000       1.000000000000
C7 C       0.599717040000       0.280042470000       0.425561730000       1.000000000000
C8 C       0.397977690000       0.616619190000       0.357834670000       1.000000000000
C9 C       0.681258470000       0.626043610000       0.578622890000       1.000000000000
C10 C       0.339436520000       0.438122690000       0.624118130000       1.000000000000
O1 O       0.304391550000       0.249707940000       0.024358560000       1.000000000000
O2 O      -0.302890850000      -0.252836330000       0.017970520000       1.000000000000
O3 O       0.252679990000      -0.306924950000      -0.027884630000       1.000000000000
O4 O      -0.254180690000       0.310053330000      -0.014444450000       1.000000000000
O5 O       0.165832570000       0.310099940000       0.562302770000       1.000000000000
O6 O       0.301511800000       0.816811280000       0.408961420000       1.000000000000
O7 O       0.845583430000       0.686490030000       0.471262210000       1.000000000000
O8 O       0.705461910000       0.147426720000       0.543611010000       1.000000000000
H1 H       0.013323450000      -0.224740340000      -0.162606520000       1.000000000000
H2 H      -0.024543680000       0.248130100000      -0.153872560000       1.000000000000
H3 H       0.240428610000       0.004522580000       0.157483790000       1.000000000000
H4 H      -0.229208380000      -0.027912320000       0.158995290000       1.000000000000
H5 H       0.065396940000       0.235259300000       0.182254770000       1.000000000000
H6 H      -0.052774170000      -0.261572770000       0.173784200000       1.000000000000
H7 H       0.241351610000      -0.049261020000      -0.180256900000       1.000000000000
H8 H      -0.253974370000       0.075574500000      -0.175782080000       1.000000000000
H9 H      -0.249756830000      -0.391786820000      -0.005979860000       1.000000000000
H10 H       0.249756830000       0.391786820000       0.005979860000       1.000000000000
H11 H      -0.392473780000       0.255960720000       0.006390120000       1.000000000000
H12 H       0.392473780000      -0.255960720000      -0.006390120000       1.000000000000
H13 H       0.747662310000       0.527203490000       0.648915840000       1.000000000000
H14 H       0.477742040000       0.202232000000       0.393543830000       1.000000000000
H15 H       0.278139210000       0.574152470000       0.646928780000       1.000000000000
H16 H       0.514846140000       0.657240010000       0.296748970000       1.000000000000
H17 H       0.416347100000       0.332276190000       0.716252960000       1.000000000000
H18 H       0.260190220000       0.522400090000       0.309013430000       1.000000000000
H19 H       0.611530270000       0.784197500000       0.617438650000       1.000000000000
H20 H       0.730322110000       0.321954190000       0.343432380000       1.000000000000
H21 H       0.156845290000       0.798064110000       0.437345180000       1.000000000000
H22 H       0.195853940000       0.159749170000       0.571596250000       1.000000000000
H23 H       0.852349570000       0.182349880000       0.555723530000       1.000000000000
H24 H       0.813340920000       0.820664820000       0.421472460000       1.000000000000
#END