# CIF file generated from CASTEP cell file
# https://gist.github.com/blake-armstrong/93facdde07a6e0a1ddb51857dd48e3f1
# Structure converted from CASTEP

data_structure

_cell_length_a    6.059224230641840
_cell_length_b    6.059224230641840
_cell_length_c    8.703960038234699
_cell_angle_alpha 90.000000000000000
_cell_angle_beta  90.000000000000000
_cell_angle_gamma 90.000000000000000

_symmetry_space_group_name_H-M 'P 1'
_symmetry_Int_Tables_number 1

loop_
_atom_site_label
_atom_site_type_symbol
_atom_site_fract_x
_atom_site_fract_y
_atom_site_fract_z
H1       H     0.252688402547476    0.011048329778713    0.176210052454487
H2       H     0.070345878405559    0.239754662608316    0.179479681473601
H3       H     0.268394528262665    0.402451596131186   -0.001795615207156
H4       H     0.011048329778713   -0.252688402547476   -0.176210052454487
H5       H     0.239754662608316   -0.070345878405560   -0.179479681473601
H6       H     0.402451596131186   -0.268394528262665    0.001795615207156
H7       H    -0.252688402547476   -0.011048329778713    0.176210052454487
H8       H    -0.070345878405560   -0.239754662608316    0.179479681473601
H9       H    -0.268394528262665   -0.402451596131186   -0.001795615207156
H10      H    -0.011048329778713    0.252688402547476   -0.176210052454487
H11      H    -0.239754662608316    0.070345878405560   -0.179479681473601
H12      H    -0.402451596131186    0.268394528262665    0.001795615207156
H13      H     0.752688402547475    0.511048329778713    0.676210052454487
H14      H     0.570345878405560    0.739754662608316    0.679479681473601
H15      H     0.768394528262666    0.902451596131186    0.498204384792844
H16      H     0.511048329778713    0.247311597452524    0.323789947545513
H17      H     0.739754662608316    0.429654121594441    0.320520318526399
H18      H     0.902451596131186    0.231605471737334    0.501795615207156
H19      H     0.247311597452524    0.488951670221287    0.676210052454487
H20      H     0.429654121594440    0.260245337391684    0.679479681473601
H21      H     0.231605471737334    0.097548403868814    0.498204384792844
H22      H     0.488951670221287    0.752688402547475    0.323789947545513
H23      H     0.260245337391684    0.570345878405560    0.320520318526399
H24      H     0.097548403868814    0.768394528262666    0.501795615207156
C1       C    -0.000000000000000    0.000000000000000    0.000000000000000
C2       C     0.161884038398946    0.127746866084961    0.103307553942855
C3       C     0.127746866084961   -0.161884038398946   -0.103307553942855
C4       C    -0.161884038398946   -0.127746866084961    0.103307553942855
C5       C    -0.127746866084961    0.161884038398946   -0.103307553942855
C6       C     0.500000000000000    0.500000000000000    0.500000000000000
C7       C     0.661884038398947    0.627746866084961    0.603307553942855
C8       C     0.627746866084961    0.338115961601054    0.396692446057145
C9       C     0.338115961601054    0.372253133915039    0.603307553942855
C10      C     0.372253133915039    0.661884038398947    0.396692446057145
O1       O     0.320774708268914    0.249269091188121    0.015290070038580
O2       O     0.249269091188121   -0.320774708268914   -0.015290070038580
O3       O    -0.320774708268914   -0.249269091188121    0.015290070038580
O4       O    -0.249269091188121    0.320774708268914   -0.015290070038580
O5       O     0.820774708268914    0.749269091188120    0.515290070038580
O6       O     0.749269091188120    0.179225291731086    0.484709929961420
O7       O     0.179225291731086    0.250730908811879    0.515290070038580
O8       O     0.250730908811879    0.820774708268914    0.484709929961420
