data_cif

_audit_creation_method             'generated by GULP'

_symmetry_space_group_name_H-M     'I -4            '
_symmetry_Int_Tables_number        82
_symmetry_cell_setting             Tetragonal  

_cell_length_a                       6.121553
_cell_length_b                       6.121553
_cell_length_c                       8.346577
_cell_angle_alpha                   90.000000
_cell_angle_beta                    90.000000
_cell_angle_gamma                   90.000000

loop_
_atom_site_label
_atom_site_fract_x
_atom_site_fract_y
_atom_site_fract_z
_atom_site_occupancy
  C1          0.00000      0.00000      0.00000  1.0000
  C1          0.16261      0.12578      0.10964  1.0000
  O3          0.31881      0.24381      0.01718  1.0000
  H4          0.24728      0.00937      0.18783  1.0000
  H4          0.07246      0.23833      0.18794  1.0000
  H2          0.25563      0.39098      0.00055  1.0000
