data_image0
_chemical_formula_structural       C10O8H24
_chemical_formula_sum              "C10 O8 H24"
_cell_length_a       6.083
_cell_length_b       6.083
_cell_length_c       8.726
_cell_angle_alpha    90.0
_cell_angle_beta     90.0
_cell_angle_gamma    90.0

_space_group_name_H-M_alt    "P 1"
_space_group_IT_number       1

loop_
  _space_group_symop_operation_xyz
  'x, y, z'

loop_
  _atom_site_type_symbol
  _atom_site_label
  _atom_site_symmetry_multiplicity
  _atom_site_fract_x
  _atom_site_fract_y
  _atom_site_fract_z
  _atom_site_occupancy
  C   C1        1.0  2.065720082978993e-08  0.999999979367753  3.084214105653435e-05  1.0000
  C   C2        1.0  0.49999997034262716  0.4999999783214313  0.5000308434666951  1.0000
  C   C3        1.0  0.15981280369321216  0.1291842571503516  0.10304805156392215  1.0000
  C   C4        1.0  0.659812850932364  0.6291842225665277  0.6030480550858951  1.0000
  C   C5        1.0  0.8708767351220627  0.15985503523179412  0.8969939029614094  1.0000
  C   C6        1.0  0.37087677869038  0.6598550700536445  0.3969938974217165  1.0000
  C   C7        1.0  0.84018717524981  0.870815798835454  0.10304804590584575  1.0000
  C   C8        1.0  0.3401871858526075  0.3708157738947335  0.6030480166265993  1.0000
  C   C9        1.0  0.12912318843507958  0.8401449037806279  0.8969938971674716  1.0000
  C   C10       1.0  0.6291232392271366  0.3401448951672661  0.39699390867159323  1.0000
  O   O1        1.0  0.31807070783607033  0.2509511994273316  0.015157761947852186  1.0000
  O   O2        1.0  0.8180706674777288  0.7509512273602044  0.5151577520342453  1.0000
  O   O3        1.0  0.7488190580808586  0.318049106991703  0.9847430801798702  1.0000
  O   O4        1.0  0.24881906826127842  0.8180491480579567  0.4847430750993739  1.0000
  O   O5        1.0  0.681929318654972  0.7490488319005222  0.015157770689048916  1.0000
  O   O6        1.0  0.18192929420212556  0.24904874518405984  0.5151577735164455  1.0000
  O   O7        1.0  0.25118090858525616  0.6819508527379072  0.9847430949345092  1.0000
  O   O8        1.0  0.7511808873861651  0.18195083128602513  0.4847430893709155  1.0000
  H   H1        1.0  0.25081381154959825  0.013953674708240394  0.1765353920707211  1.0000
  H   H2        1.0  0.7508137756147738  0.5139537002125172  0.6765353394016912  1.0000
  H   H3        1.0  0.9862080919884201  0.2509966431249909  0.823682259880005  1.0000
  H   H4        1.0  0.4862080698965052  0.7509966683386683  0.32368227886267925  1.0000
  H   H5        1.0  0.7491862184288526  0.9860463285991625  0.1765353524856313  1.0000
  H   H6        1.0  0.24918620103869127  0.4860463304221888  0.6765353567955689  1.0000
  H   H7        1.0  0.013791937089245357  0.7490033826113505  0.8236822645972808  1.0000
  H   H8        1.0  0.513791950772259  0.24900332646915316  0.32368228083592304  1.0000
  H   H9        1.0  0.06722832033896187  0.24068619334210098  0.17856543502689814  1.0000
  H   H10       1.0  0.5672283271639473  0.7406862142026172  0.6785654114749096  1.0000
  H   H11       1.0  0.7596110013948987  0.06736447920172768  0.8212564452164437  1.0000
  H   H12       1.0  0.2596109474797895  0.5673644977181607  0.32125650177875914  1.0000
  H   H13       1.0  0.932771709429347  0.7593137909932994  0.17856546957492886  1.0000
  H   H14       1.0  0.43277166510153503  0.25931378181327874  0.6785654295381403  1.0000
  H   H15       1.0  0.2403890682496993  0.9326355485007064  0.8212564742631572  1.0000
  H   H16       1.0  0.7403890485544966  0.4326355090324041  0.32125648657969147  1.0000
  H   H17       1.0  0.26680547063337773  0.404808452955678  0.998550046258584  1.0000
  H   H18       1.0  0.7668054642781377  0.9048084357223383  0.4985500323516585  1.0000
  H   H19       1.0  0.5951037994354029  0.2664789061175151  0.0014522329346435972  1.0000
  H   H20       1.0  0.09510377774211157  0.7664788956467387  0.5014522197089272  1.0000
  H   H21       1.0  0.733194552001582  0.5951915696968962  0.9985500281022254  1.0000
  H   H22       1.0  0.23319452190699583  0.09519154384698009  0.4985500507192876  1.0000
  H   H23       1.0  0.40489617647300485  0.733521100498188  0.0014522247778540184  1.0000
  H   H24       1.0  0.9048962643194393  0.23352111934041228  0.501452222281486  1.0000
