data_image0
_chemical_formula_structural       S128
_chemical_formula_sum              "S128"
_cell_length_a       10.387691927971261
_cell_length_b       12.89615828736247
_cell_length_c       24.35019088917582
_cell_angle_alpha    89.56357368834442
_cell_angle_beta     89.88805612675594
_cell_angle_gamma    89.68154529594412

_space_group_name_H-M_alt    "P 1"
_space_group_IT_number       1

loop_
  _space_group_symop_operation_xyz
  'x, y, z'

loop_
  _atom_site_type_symbol
  _atom_site_label
  _atom_site_symmetry_multiplicity
  _atom_site_fract_x
  _atom_site_fract_y
  _atom_site_fract_z
  _atom_site_occupancy
  S   S1        1.0  0.6013526456223761  0.7037866191103052  0.05241452118577793  1.0000
  S   S2        1.0  0.6007582369991347  0.04545140580957325  0.6971904194269106  1.0000
  S   S3        1.0  0.14650325631955424  0.7005354519182272  0.6978198044720809  1.0000
  S   S4        1.0  0.14967035941784496  0.04861293666309962  0.05189683286065592  1.0000
  S   S5        1.0  0.3969771315600199  0.2957392076232583  0.9474608464277194  1.0000
  S   S6        1.0  0.39836152487281584  0.954594943121368  0.3026930921035072  1.0000
  S   S7        1.0  0.8524137124317311  0.299539244798166  0.3024124890537707  1.0000
  S   S8        1.0  0.849441897496218  0.9510102481792382  0.9479533510108029  1.0000
  S   S9        1.0  0.6013505475040014  0.20378698585528401  0.5524148539332829  1.0000
  S   S10       1.0  0.10135025466312367  0.7037842623513093  0.5524144516788309  1.0000
  S   S11       1.0  0.101350679725989  0.20378396552826442  0.05241420130892943  1.0000
  S   S12       1.0  0.6007565351136203  0.5454515814846168  0.19718994980153673  1.0000
  S   S13       1.0  0.10075773694291101  0.04544643089016739  0.1971892714722857  1.0000
  S   S14       1.0  0.10075891998177161  0.5454468035003955  0.6971893654877778  1.0000
  S   S15       1.0  0.14650346784829532  0.20053498217583574  0.19782002977597768  1.0000
  S   S16       1.0  0.6465028661175493  0.7005407746321803  0.19781919937838952  1.0000
  S   S17       1.0  0.6465044570622404  0.2005412963434066  0.697819196958897  1.0000
  S   S18       1.0  0.14967115162216552  0.5486125692773387  0.5518964822928322  1.0000
  S   S19       1.0  0.6496702782050001  0.04861614643771012  0.5518961216762421  1.0000
  S   S20       1.0  0.6496712671561071  0.5486165517945938  0.05189557370976348  1.0000
  S   S21       1.0  0.3969766800637094  0.795737153520198  0.4474603748919262  1.0000
  S   S22       1.0  0.8969770848951104  0.2957352008789459  0.4474610479672074  1.0000
  S   S23       1.0  0.89697746583998  0.7957402847299542  0.9474614877073353  1.0000
  S   S24       1.0  0.39835974451250655  0.45460046598347803  0.8026933874219454  1.0000
  S   S25       1.0  0.898359786060058  0.954596891653417  0.8026936455211077  1.0000
  S   S26       1.0  0.8983610378667631  0.4545972381357702  0.3026936038100835  1.0000
  S   S27       1.0  0.8524131352892419  0.799539184751814  0.802411887377352  1.0000
  S   S28       1.0  0.3524138588735776  0.29954236612615476  0.8024111147414966  1.0000
  S   S29       1.0  0.35241236934526343  0.799536718252685  0.30241257076311473  1.0000
  S   S30       1.0  0.849441785282731  0.4510045682553076  0.44795482491387517  1.0000
  S   S31       1.0  0.34944229861414167  0.9510062123981933  0.44795374782765673  1.0000
  S   S32       1.0  0.3494417578892095  0.4510092568078512  0.9479527837344994  1.0000
  S   S33       1.0  0.5199075626981133  0.784679881676405  0.9266759037775538  1.0000
  S   S34       1.0  0.5244246432196799  0.9655584823715704  0.8236029909044015  1.0000
  S   S35       1.0  0.21165325291315995  0.7726138561725202  0.8261517487216119  1.0000
  S   S36       1.0  0.2132598536245852  0.9778604215153742  0.9232768428578864  1.0000
  S   S37       1.0  0.4798173295625422  0.21566926060243558  0.07340671745371338  1.0000
  S   S38       1.0  0.4780141811864581  0.03427265013958256  0.17627030361708784  1.0000
  S   S39       1.0  0.7891875560280734  0.22726368158600369  0.17412252066288586  1.0000
  S   S40       1.0  0.7877118631891283  0.02289967996115716  0.0766483073664696  1.0000
  S   S41       1.0  0.5199089599393476  0.28467918048812335  0.42667605977428746  1.0000
  S   S42       1.0  0.019911292320925887  0.784680799400011  0.4266746514307049  1.0000
  S   S43       1.0  0.019910838480668474  0.2846807176313322  0.9266743478862118  1.0000
  S   S44       1.0  0.524425341553284  0.4655585870228909  0.32360312268565106  1.0000
  S   S45       1.0  0.024423162278839762  0.9655621508689131  0.32360053178995357  1.0000
  S   S46       1.0  0.024422061921166128  0.4655616561842912  0.8236002758141145  1.0000
  S   S47       1.0  0.21165175608205375  0.2726143448927398  0.32615158575309383  1.0000
  S   S48       1.0  0.7116546694452414  0.7726114060972817  0.3261495134038707  1.0000
  S   S49       1.0  0.7116553197750235  0.2726112300686802  0.8261500196043443  1.0000
  S   S50       1.0  0.21325992888725837  0.47785980536604084  0.42327641653965925  1.0000
  S   S51       1.0  0.7132579591292157  0.9778592679206451  0.42327624809754993  1.0000
  S   S52       1.0  0.7132571931229061  0.47785843728462746  0.923276051608225  1.0000
  S   S53       1.0  0.479818273503532  0.7156710358064715  0.5734050109586125  1.0000
  S   S54       1.0  0.979818761151468  0.21567150450504782  0.5734045192494635  1.0000
  S   S55       1.0  0.9798160996787402  0.715667641943988  0.07340701066203664  1.0000
  S   S56       1.0  0.47801582294569295  0.5342695594338217  0.6762734181918173  1.0000
  S   S57       1.0  0.9780146374121674  0.03427134500306198  0.6762718563008793  1.0000
  S   S58       1.0  0.9780140950237345  0.5342714804568954  0.17627120614948022  1.0000
  S   S59       1.0  0.7891894639600021  0.7272641563489605  0.6741222468459435  1.0000
  S   S60       1.0  0.2891889744896156  0.22726301627153103  0.6741216007472884  1.0000
  S   S61       1.0  0.2891859939747541  0.7272638972835372  0.17412343508124029  1.0000
  S   S62       1.0  0.787714524950616  0.5229025330269952  0.5766501259862116  1.0000
  S   S63       1.0  0.28771408870607884  0.022901982104593644  0.5766494978734307  1.0000
  S   S64       1.0  0.28771391935089463  0.5228999663448047  0.07664871263674972  1.0000
  S   S65       1.0  0.44871667080782457  0.7273753378486966  0.00014341190904754164  1.0000
  S   S66       1.0  0.44987134282695695  0.020667347847994018  0.7503483362451885  1.0000
  S   S67       1.0  0.2922222032212283  0.7223270342954952  0.7533888461012455  1.0000
  S   S68       1.0  0.29497898533635347  0.027309323640873604  0.9957104829505196  1.0000
  S   S69       1.0  0.5498854249935042  0.27149887767598757  0.9994900097560312  1.0000
  S   S70       1.0  0.5501782317617557  0.9782823457531593  0.24981246958307063  1.0000
  S   S71       1.0  0.7071464689964749  0.2772678709139782  0.24659267477476837  1.0000
  S   S72       1.0  0.7049556784540724  0.9736779507160912  0.004400678862254618  1.0000
  S   S73       1.0  0.4487158049618712  0.22737436496802452  0.5001436511106959  1.0000
  S   S74       1.0  0.9487190908204955  0.7273742368431749  0.5001419086106041  1.0000
  S   S75       1.0  0.9487198971474935  0.22737453940643235  0.00014215546007445568  1.0000
  S   S76       1.0  0.44987173905083805  0.520667277721974  0.2503485322207799  1.0000
  S   S77       1.0  0.9498669378496931  0.0206687819714486  0.2503461238983985  1.0000
  S   S78       1.0  0.9498674584986299  0.5206677505910687  0.7503456003838138  1.0000
  S   S79       1.0  0.2922224461859066  0.22232671633125303  0.2533888479476059  1.0000
  S   S80       1.0  0.7922262577540737  0.7223253594335429  0.25338660696984466  1.0000
  S   S81       1.0  0.7922253655619395  0.22232706397608928  0.7533868952326529  1.0000
  S   S82       1.0  0.29497972001259093  0.5273094394878521  0.4957102406449402  1.0000
  S   S83       1.0  0.7949764580643551  0.027309028811321804  0.495708548728823  1.0000
  S   S84       1.0  0.7949774122583182  0.5273089049377242  0.995709057936037  1.0000
  S   S85       1.0  0.5498882002240181  0.7714988909459632  0.49948868113728967  1.0000
  S   S86       1.0  0.04988990470893693  0.27149985016599126  0.4994879614245568  1.0000
  S   S87       1.0  0.049885082233613556  0.7714989098069173  0.9994907044943382  1.0000
  S   S88       1.0  0.5501826600836113  0.4782796493977669  0.7498146410199464  1.0000
  S   S89       1.0  0.05017829269782096  0.9782806643920884  0.7498136613357552  1.0000
  S   S90       1.0  0.050179153870957185  0.4782821193903335  0.24981344991903154  1.0000
  S   S91       1.0  0.7071470633464035  0.777265882554341  0.7465925780570846  1.0000
  S   S92       1.0  0.20714809543783808  0.2772658082111062  0.7465913443386369  1.0000
  S   S93       1.0  0.2071449944872128  0.7772685168014678  0.2465931877336544  1.0000
  S   S94       1.0  0.7049593639915382  0.4736787935781484  0.5044027690579964  1.0000
  S   S95       1.0  0.2049594549120155  0.9736785176364742  0.5044015766548979  1.0000
  S   S96       1.0  0.20495815897933223  0.4736784708972892  0.004400979851308303  1.0000
  S   S97       1.0  0.5234172407940506  0.6661975971371275  0.8705203808774182  1.0000
  S   S98       1.0  0.5240746896319565  0.08475780418296161  0.8794476885957702  1.0000
  S   S99       1.0  0.20555098375294184  0.6504880790354172  0.8810760724499924  1.0000
  S   S100      1.0  0.20585386353183482  0.1006583777698014  0.8688074851293844  1.0000
  S   S101      1.0  0.47762396091469767  0.334586672125055  0.12935040067682865  1.0000
  S   S102      1.0  0.476302078951401  0.9152300139724818  0.12048309942384156  1.0000
  S   S103      1.0  0.7946778002579683  0.3496270064053925  0.11934499488890353  1.0000
  S   S104      1.0  0.7950860890556835  0.8999598053343987  0.13109288536058075  1.0000
  S   S105      1.0  0.5234173210209025  0.16619721781011146  0.37052037650581005  1.0000
  S   S106      1.0  0.023414113969232923  0.6661973580102104  0.37052038277280097  1.0000
  S   S107      1.0  0.0234147564433513  0.1661982086845346  0.8705198430868537  1.0000
  S   S108      1.0  0.5240757854317029  0.5847591659261825  0.37944851772944016  1.0000
  S   S109      1.0  0.024083257384557993  0.08475978410230926  0.3794481015270517  1.0000
  S   S110      1.0  0.024082457725180334  0.5847587966325636  0.8794479414133085  1.0000
  S   S111      1.0  0.2055518392852347  0.15049060973350592  0.3810758493204477  1.0000
  S   S112      1.0  0.7055454027518827  0.6504889583915917  0.38107443819054854  1.0000
  S   S113      1.0  0.7055445669197936  0.15048813758469878  0.8810736957612333  1.0000
  S   S114      1.0  0.20585344254837895  0.60065819827045  0.3688074445622253  1.0000
  S   S115      1.0  0.7058565628851029  0.1006578771092141  0.36880674491062326  1.0000
  S   S116      1.0  0.7058552947835651  0.6006572187211032  0.8688073979312597  1.0000
  S   S117      1.0  0.4776227463472094  0.8345874048874118  0.6293500152139984  1.0000
  S   S118      1.0  0.9776209749247533  0.3345874230657593  0.6293494861413833  1.0000
  S   S119      1.0  0.9776252476296132  0.8345856949512375  0.1293500301134196  1.0000
  S   S120      1.0  0.4762951450828625  0.41523036299442406  0.6204838389305011  1.0000
  S   S121      1.0  0.976298634938688  0.9152303409605297  0.620483693275857  1.0000
  S   S122      1.0  0.9763000679384489  0.4152299002787146  0.12048323123609474  1.0000
  S   S123      1.0  0.794677577100688  0.8496272213575592  0.6193449380113831  1.0000
  S   S124      1.0  0.2946740972397024  0.34962645293916955  0.6193445828296192  1.0000
  S   S125      1.0  0.2946811799749505  0.8496277941079244  0.11934574021866894  1.0000
  S   S126      1.0  0.7950822773136502  0.39996219944332195  0.6310938583649669  1.0000
  S   S127      1.0  0.29508560516771465  0.8999615978575436  0.631093998669702  1.0000
  S   S128      1.0  0.2950856818194317  0.39995953671197515  0.13109325427873236  1.0000
