data_image0
_chemical_formula_structural       S128
_chemical_formula_sum              "S128"
_cell_length_a       10.3849
_cell_length_b       12.755
_cell_length_c       24.4098
_cell_angle_alpha    90.0
_cell_angle_beta     90.0
_cell_angle_gamma    90.0

_space_group_name_H-M_alt    "P 1"
_space_group_IT_number       1

loop_
  _space_group_symop_operation_xyz
  'x, y, z'

loop_
  _atom_site_type_symbol
  _atom_site_label
  _atom_site_symmetry_multiplicity
  _atom_site_fract_x
  _atom_site_fract_y
  _atom_site_fract_z
  _atom_site_occupancy
  S   S1        1.0  0.6071387162442269  0.7041553462378822  0.05039999265186199  1.0000
  S   S2        1.0  0.6071387387704424  0.045844688951340494  0.6995999891383475  1.0000
  S   S3        1.0  0.142861239204992  0.7041553083390595  0.6996000040804508  1.0000
  S   S4        1.0  0.14286120002229558  0.04584471788357112  0.05040000447162679  1.0000
  S   S5        1.0  0.3925407507381006  0.29592367445705203  0.9498059366397857  1.0000
  S   S6        1.0  0.39254070646691264  0.9540762774737287  0.30019408656490904  1.0000
  S   S7        1.0  0.8574592784449389  0.2959236657893821  0.3001941116582076  1.0000
  S   S8        1.0  0.8574592504474724  0.9540763085428663  0.9498059479881376  1.0000
  S   S9        1.0  0.6071386995000361  0.2041553609029249  0.5503999700986677  1.0000
  S   S10       1.0  0.10713873448347147  0.7041552974313975  0.5503999949010634  1.0000
  S   S11       1.0  0.10713875213055353  0.20415531473422835  0.0504000193943551  1.0000
  S   S12       1.0  0.6071387001167206  0.5458446896459399  0.1995999912586686  1.0000
  S   S13       1.0  0.10713865039477519  0.04584469458080876  0.19960002143834213  1.0000
  S   S14       1.0  0.10713884122151886  0.545844739801459  0.6995999882486673  1.0000
  S   S15       1.0  0.14286123381080887  0.20415535210167857  0.1996000202858341  1.0000
  S   S16       1.0  0.6428612317704033  0.7041553599971738  0.19960001319082307  1.0000
  S   S17       1.0  0.6428611963045852  0.20415531812458224  0.699599999284606  1.0000
  S   S18       1.0  0.14286127763398726  0.5458447351294701  0.5503999997111785  1.0000
  S   S19       1.0  0.6428613077662265  0.04584467319976619  0.5503999841436762  1.0000
  S   S20       1.0  0.642861237176935  0.5458446922050747  0.050400005422263326  1.0000
  S   S21       1.0  0.39254080786164636  0.7959236941588608  0.44980591221513644  1.0000
  S   S22       1.0  0.8925407315311893  0.2959236552010776  0.4498058993356186  1.0000
  S   S23       1.0  0.8925407380227594  0.7959236780162567  0.9498059327299383  1.0000
  S   S24       1.0  0.39254070368328386  0.45407627596792843  0.800194077838418  1.0000
  S   S25       1.0  0.8925407132273091  0.9540763375656764  0.8001940582492737  1.0000
  S   S26       1.0  0.892540736445004  0.4540763104006278  0.300194100575934  1.0000
  S   S27       1.0  0.8574591982191527  0.7959237294120127  0.8001940404308664  1.0000
  S   S28       1.0  0.3574592703765565  0.2959236751341461  0.8001940809926237  1.0000
  S   S29       1.0  0.3574592756550087  0.7959236617966078  0.3001940764628821  1.0000
  S   S30       1.0  0.8574592010238797  0.4540763020071789  0.44980590304040424  1.0000
  S   S31       1.0  0.35745931965204286  0.9540763123936012  0.4498059335461826  1.0000
  S   S32       1.0  0.3574593254007194  0.45407630655101583  0.9498059306654306  1.0000
  S   S33       1.0  0.5354563246305296  0.783946637000473  0.9241562654505169  1.0000
  S   S34       1.0  0.5354563326932099  0.9660533836988566  0.8258436209653697  1.0000
  S   S35       1.0  0.2145435947721158  0.7839466903196087  0.8258436911284123  1.0000
  S   S36       1.0  0.2145436441902074  0.9660533719342521  0.9241563547208546  1.0000
  S   S37       1.0  0.4651204607239939  0.2160030892704997  0.07605462785299164  1.0000
  S   S38       1.0  0.4651205063783526  0.033996909776714615  0.17394540728919725  1.0000
  S   S39       1.0  0.784879426164034  0.2160031027181775  0.17394540556632224  1.0000
  S   S40       1.0  0.7848795314428473  0.033996857840618636  0.07605467290962958  1.0000
  S   S41       1.0  0.5354563931515876  0.28394657652388827  0.4241562756950656  1.0000
  S   S42       1.0  0.03545635444807726  0.783946619647913  0.4241563635048345  1.0000
  S   S43       1.0  0.03545631609412588  0.28394659909946485  0.9241563823372672  1.0000
  S   S44       1.0  0.5354563866690765  0.46605338033960875  0.32584365853581937  1.0000
  S   S45       1.0  0.03545635302366654  0.9660533659472028  0.3258436471668189  1.0000
  S   S46       1.0  0.035456336273618945  0.4660533811777985  0.8258436595301241  1.0000
  S   S47       1.0  0.21454360206238593  0.2839466321030346  0.3258436639088496  1.0000
  S   S48       1.0  0.7145436043377867  0.7839466508021887  0.32584364608890426  1.0000
  S   S49       1.0  0.7145436442298915  0.28394661187110926  0.8258436307535653  1.0000
  S   S50       1.0  0.21454370400298867  0.4660533929045401  0.4241563582660499  1.0000
  S   S51       1.0  0.7145437321203079  0.966053367006438  0.42415633045048584  1.0000
  S   S52       1.0  0.714543624106996  0.46605335794521807  0.924156353080211  1.0000
  S   S53       1.0  0.46512058037722026  0.7160030899723188  0.5760546186593445  1.0000
  S   S54       1.0  0.9651205857426448  0.21600316413846532  0.5760546081264358  1.0000
  S   S55       1.0  0.9651205040084985  0.7160030646331403  0.07605465581005762  1.0000
  S   S56       1.0  0.46512043343335074  0.5339968909279094  0.673945373187468  1.0000
  S   S57       1.0  0.9651203795463437  0.03399689653900319  0.6739453871622891  1.0000
  S   S58       1.0  0.9651205064079432  0.5339968721881828  0.17394540819727425  1.0000
  S   S59       1.0  0.784879581890228  0.7160030896859669  0.6739453887950243  1.0000
  S   S60       1.0  0.28487952261212496  0.21600308199758145  0.6739454068900372  1.0000
  S   S61       1.0  0.2848795301526071  0.7160031350936219  0.17394538143147537  1.0000
  S   S62       1.0  0.7848794977018891  0.5339968670646277  0.5760545947186844  1.0000
  S   S63       1.0  0.2848794750048188  0.03399682309245728  0.5760546020664166  1.0000
  S   S64       1.0  0.2848795679752083  0.5339968628440963  0.07605462534448335  1.0000
  S   S65       1.0  0.4579556081427651  0.7348239488836577  0.997396949730769  1.0000
  S   S66       1.0  0.4579556066726712  0.015176072377483592  0.7526030351619697  1.0000
  S   S67       1.0  0.29204435039727666  0.7348239975686844  0.7526030393556604  1.0000
  S   S68       1.0  0.2920443445101138  0.015176059438771667  0.9973969613881154  1.0000
  S   S69       1.0  0.5420816233741017  0.2650287443468034  0.0028206791560424905  1.0000
  S   S70       1.0  0.5420816319404245  0.9849712451451281  0.24717937186265035  1.0000
  S   S71       1.0  0.7079183674257693  0.2650287623545133  0.24717937389057748  1.0000
  S   S72       1.0  0.7079184161215567  0.9849712328509418  0.00282068500268403  1.0000
  S   S73       1.0  0.4579556982320386  0.23482389414484012  0.4973969521544185  1.0000
  S   S74       1.0  0.9579556325490298  0.7348238893277627  0.49739695055937405  1.0000
  S   S75       1.0  0.9579556484822869  0.23482399575696805  0.9973968790709945  1.0000
  S   S76       1.0  0.45795562169515486  0.5151760979491519  0.2526030626170093  1.0000
  S   S77       1.0  0.9579556577892178  0.01517612983416072  0.25260303283757873  1.0000
  S   S78       1.0  0.9579556388558693  0.5151760544477101  0.7526030492256043  1.0000
  S   S79       1.0  0.2920442740757487  0.23482396986613888  0.25260302842437704  1.0000
  S   S80       1.0  0.7920442865595485  0.7348239731766855  0.25260302331857104  1.0000
  S   S81       1.0  0.7920443270645938  0.23482393867136192  0.7526030261939561  1.0000
  S   S82       1.0  0.2920443954713836  0.5151761089520769  0.4973969584333134  1.0000
  S   S83       1.0  0.7920443150767514  0.015176110351935678  0.4973969895412462  1.0000
  S   S84       1.0  0.7920443384895687  0.5151761095148155  0.9973969730921297  1.0000
  S   S85       1.0  0.5420817073694831  0.7650287812854442  0.502820667078587  1.0000
  S   S86       1.0  0.04208163930810319  0.2650287811342419  0.5028206401288593  1.0000
  S   S87       1.0  0.04208160369747392  0.7650287458880958  0.002820671559568735  1.0000
  S   S88       1.0  0.5420815946206994  0.484971269344283  0.7471793511273543  1.0000
  S   S89       1.0  0.04208151256233717  0.9849712921717443  0.7471793341703671  1.0000
  S   S90       1.0  0.04208166832577385  0.48497124328888197  0.24717936520508574  1.0000
  S   S91       1.0  0.7079183471984036  0.765028704966895  0.7471792944036826  1.0000
  S   S92       1.0  0.20791837811131847  0.2650286950165381  0.7471793267337595  1.0000
  S   S93       1.0  0.20791836043012457  0.7650287446427904  0.24717933957554514  1.0000
  S   S94       1.0  0.7079183374185046  0.4849711974831136  0.5028206571787576  1.0000
  S   S95       1.0  0.20791839486518668  0.9849712184716914  0.5028206628613505  1.0000
  S   S96       1.0  0.2079184604988448  0.48497123538679554  0.002820665924884325  1.0000
  S   S97       1.0  0.5361813225380954  0.6609025353835593  0.8698325266257176  1.0000
  S   S98       1.0  0.5361813818631822  0.08909740929028451  0.880167432389455  1.0000
  S   S99       1.0  0.21381855106179737  0.6609025685138379  0.8801674527980723  1.0000
  S   S100      1.0  0.21381863992903777  0.08909745032642875  0.8698325424034004  1.0000
  S   S101      1.0  0.4639020251118935  0.3394562267552605  0.13025109642687616  1.0000
  S   S102      1.0  0.4639021007508341  0.9105437972516919  0.1197489306329926  1.0000
  S   S103      1.0  0.7860979549970862  0.3394562888347092  0.11974896365600608  1.0000
  S   S104      1.0  0.7860979214027346  0.9105437294791844  0.13025110142038201  1.0000
  S   S105      1.0  0.5361813446474709  0.16090250799767894  0.3698325460652177  1.0000
  S   S106      1.0  0.036181357558371215  0.6609025025911234  0.369832546719791  1.0000
  S   S107      1.0  0.0361813650779549  0.16090247991129888  0.869832527131775  1.0000
  S   S108      1.0  0.5361813295028292  0.5890974386440389  0.3801674376767514  1.0000
  S   S109      1.0  0.03618135198337802  0.08909743979604169  0.38016744840231914  1.0000
  S   S110      1.0  0.03618133385824423  0.5890974870688026  0.8801674390956269  1.0000
  S   S111      1.0  0.21381872682029074  0.16090254013981353  0.38016742514291  1.0000
  S   S112      1.0  0.7138187295617792  0.660902551967523  0.38016744307657113  1.0000
  S   S113      1.0  0.7138186855882896  0.16090252465052338  0.8801674204120457  1.0000
  S   S114      1.0  0.21381868868240256  0.5890975139181129  0.369832559914875  1.0000
  S   S115      1.0  0.7138187360117216  0.08909738094756314  0.3698325680062026  1.0000
  S   S116      1.0  0.7138187003954753  0.5890974211796015  0.8698325380379762  1.0000
  S   S117      1.0  0.4639020816356287  0.8394562579325678  0.6302510797997907  1.0000
  S   S118      1.0  0.963902108985891  0.3394562826137797  0.6302510552237831  1.0000
  S   S119      1.0  0.9639021033285781  0.8394561895841302  0.13025111393849992  1.0000
  S   S120      1.0  0.4639020639849121  0.4105437318315347  0.6197489193802043  1.0000
  S   S121      1.0  0.9639020594230757  0.9105438224605605  0.6197488871923976  1.0000
  S   S122      1.0  0.9639020555358571  0.4105437426299571  0.119748972562495  1.0000
  S   S123      1.0  0.7860979855996664  0.8394562944206682  0.6197488936999769  1.0000
  S   S124      1.0  0.28609799655070967  0.3394561993834987  0.6197489153922553  1.0000
  S   S125      1.0  0.2860979639181897  0.8394563097774738  0.1197489205511929  1.0000
  S   S126      1.0  0.7860979751484338  0.4105437281820758  0.6302510471189676  1.0000
  S   S127      1.0  0.28609789271046204  0.9105436735097859  0.6302510753648779  1.0000
  S   S128      1.0  0.28609794143663914  0.4105437699990806  0.1302510958587447  1.0000
