data_RESORA19.b3lyp.6-311G**.dma4.-134.772.1.3858
_audit_creation_method 'generated by cspy2.0'
_cell_length_a 12.2844
_cell_length_b 7.5534
_cell_length_c 5.6884
_cell_angle_alpha 90.0
_cell_angle_beta 90.0
_cell_angle_gamma 90.80950000000001
loop_
_symmetry_equiv_pos_site_id
_symmetry_equiv_pos_as_xyz
1 +x,+y,+z
loop_
_atom_site_label
_atom_site_type_symbol
_atom_site_fract_x
_atom_site_fract_y
_atom_site_fract_z
_atom_site_occupancy
O1 O       0.836136860000       0.516676930000       0.427720350000       1.000000000000
O2 O       0.526566400000       0.836600410000       0.644160100000       1.000000000000
O3 O       0.243209080000       0.410338620000       0.927720350000       1.000000000000
O4 O       0.552779530000       0.090415100000       1.144160090000       1.000000000000
O5 O       0.341382400000       0.900143450000       0.439146090000       1.000000000000
O6 O       0.024385380000       0.575292400000       0.628650000000       1.000000000000
O7 O       0.737963540000       0.026872050000       0.939146020000       1.000000000000
O8 O       1.054960540000       0.351723150000       1.128650030000       1.000000000000
H1 H       0.864231940000       0.465922560000       0.316205110000       1.000000000000
H2 H       0.467813040000       0.870447450000       0.594204760000       1.000000000000
H3 H       0.711796720000       0.701199980000       0.672261100000       1.000000000000
H4 H       0.724477190000       0.467078020000       0.039141970000       1.000000000000
H5 H       0.459070790000       0.737356420000       0.227761750000       1.000000000000
H6 H       0.551566000000       0.568522920000      -0.040886120000       1.000000000000
H7 H       0.215114010000       0.461093000000       0.816205110000       1.000000000000
H8 H       0.611532890000       0.056568040000       1.094204760000       1.000000000000
H9 H       0.367549210000       0.225815550000       1.172261100000       1.000000000000
H10 H       0.354868730000       0.459937500000       0.539141990000       1.000000000000
H11 H       0.620275130000       0.189659060000       0.727761760000       1.000000000000
H12 H       0.527779920000       0.358492580000       0.459113890000       1.000000000000
H13 H       0.370891470000       0.955050270000       0.331772930000       1.000000000000
H14 H      -0.034930250000       0.544173150000       0.575649250000       1.000000000000
H15 H       0.212390220000       0.707314470000       0.668606560000       1.000000000000
H16 H       0.231967190000       0.966698830000       0.053405640000       1.000000000000
H17 H      -0.039730200000       0.692065050000       0.219215720000       1.000000000000
H18 H       0.057159870000       0.870557920000      -0.035815970000       1.000000000000
H19 H       0.708454480000      -0.028034780000       0.831772870000       1.000000000000
H20 H       1.114276190000       0.382842410000       1.075649290000       1.000000000000
H21 H       0.866955720000       0.219701060000       1.168606550000       1.000000000000
H22 H       0.847378750000      -0.039683320000       0.553405580000       1.000000000000
H23 H       1.119076140000       0.234950510000       0.719215750000       1.000000000000
H24 H       1.022186060000       0.056457620000       0.464184030000       1.000000000000
C1 C       0.679743230000       0.674882350000       0.528161930000       1.000000000000
C2 C       0.687314800000       0.533887600000       0.149596350000       1.000000000000
C3 C       0.577074130000       0.736360640000       0.474583610000       1.000000000000
C4 C       0.528361190000       0.696636810000       0.262208410000       1.000000000000
C5 C       0.584093770000       0.595863560000       0.102506590000       1.000000000000
C6 C       0.733838090000       0.573729740000       0.364060310000       1.000000000000
C7 C       0.399602700000       0.252133190000       1.028161930000       1.000000000000
C8 C       0.392031130000       0.393127930000       0.649596360000       1.000000000000
C9 C       0.502271800000       0.190654880000       0.974583610000       1.000000000000
C10 C       0.550984730000       0.230378700000       0.762208410000       1.000000000000
C11 C       0.495252150000       0.331151940000       0.602506600000       1.000000000000
C12 C       0.345507840000       0.353285800000       0.864060320000       1.000000000000
C13 C       0.181336600000       0.739805630000       0.526238760000       1.000000000000
C14 C       0.193053250000       0.895904250000       0.158459250000       1.000000000000
C15 C       0.077533460000       0.681725320000       0.467121160000       1.000000000000
C16 C       0.030314280000       0.730562350000       0.257347830000       1.000000000000
C17 C       0.088668060000       0.837068950000       0.105778400000       1.000000000000
C18 C       0.238074230000       0.846887960000       0.370284190000       1.000000000000
C19 C       0.898009330000       0.187209900000       1.026238750000       1.000000000000
C20 C       0.886292690000       0.031111280000       0.658459220000       1.000000000000
C21 C       1.001812470000       0.245290220000       0.967121170000       1.000000000000
C22 C       1.049031640000       0.196453200000       0.757347850000       1.000000000000
C23 C       0.990677870000       0.089946580000       0.605778390000       1.000000000000
C24 C       0.841271710000       0.080127560000       0.870284160000       1.000000000000
#END