data_C6H6O2
_audit_creation_method 'chmpy python library version 1.0a1'
_cell_length_a 10.386623
_cell_length_b 8.432318
_cell_length_c 6.242302
_cell_angle_alpha 90.0
_cell_angle_beta 90.0
_cell_angle_gamma 90.0
loop_
_symmetry_equiv_pos_site_id
_symmetry_equiv_pos_as_xyz
                   1 +x,+y,+z
                   2 -x,-y,1/2+z
                   3 1/2+x,1/2-y,+z
                   4 1/2-x,1/2+y,1/2+z
loop_
_atom_site_label
_atom_site_type_symbol
_atom_site_fract_x
_atom_site_fract_y
_atom_site_fract_z
_atom_site_occupancy
O O       0.819343000000       0.438565000000       0.450300000000       1.000000000000
H H       0.870341000000       0.395691000000       0.324635000000       1.000000000000
O O       0.494421000000       0.823195000000       0.639072000000       1.000000000000
H H       0.430381000000       0.899398000000       0.572920000000       1.000000000000
C C       0.656553000000       0.631462000000       0.536270000000       1.000000000000
H H       0.692977000000       0.631189000000       0.700107000000       1.000000000000
C C       0.670996000000       0.535419000000       0.168969000000       1.000000000000
H H       0.717029000000       0.458986000000       0.050094000000       1.000000000000
C C       0.551568000000       0.729642000000       0.481316000000       1.000000000000
C C       0.507073000000       0.728444000000       0.266127000000       1.000000000000
H H       0.425248000000       0.803074000000       0.222097000000       1.000000000000
C C       0.566709000000       0.632188000000       0.112823000000       1.000000000000
H H       0.530707000000       0.632998000000       0.948052000000       1.000000000000
C C       0.716903000000       0.533202000000       0.383295000000       1.000000000000
#END