data_image0
_chemical_formula_structural       O4H4O4H4C4H4C4H4C8H4C4H4C4
_chemical_formula_sum              "O8 H24 C24"
_cell_length_a       10.5496
_cell_length_b       9.5704
_cell_length_c       5.6693
_cell_angle_alpha    90.0
_cell_angle_beta     90.0
_cell_angle_gamma    90.0

_space_group_name_H-M_alt    "P 1"
_space_group_IT_number       1

loop_
  _space_group_symop_operation_xyz
  'x, y, z'

loop_
  _atom_site_type_symbol
  _atom_site_label
  _atom_site_symmetry_multiplicity
  _atom_site_fract_x
  _atom_site_fract_y
  _atom_site_fract_z
  _atom_site_occupancy
  O   O1        1.0  0.8483059021383169  0.5011889816107622  0.45112789603363607  1.0000
  O   O2        1.0  0.15169419781361712  0.4988110430093758  0.9511277261305843  1.0000
  O   O3        1.0  0.651622214275106  0.0013266230230544185  0.950584670946312  1.0000
  O   O4        1.0  0.34837782107934956  0.9986735365200957  0.4505845449928882  1.0000
  H   H1        1.0  0.8800470589192413  0.43604069312671845  0.3261852468677089  1.0000
  H   H2        1.0  0.11995275997849696  0.563959403141743  0.826185298120514  1.0000
  H   H3        1.0  0.6197625658722586  0.9362351174183594  0.8255915937558123  1.0000
  H   H4        1.0  0.38023745247081414  0.06376495982410998  0.3255916198706772  1.0000
  O   O5        1.0  0.5380945497848811  0.8449163156693638  0.6211821409642987  1.0000
  O   O6        1.0  0.46190549729785096  0.15508365493731915  0.12118223981900762  1.0000
  O   O7        1.0  0.9618469794888697  0.3448651279280628  0.12119241277569084  1.0000
  O   O8        1.0  0.038152937074621876  0.6551347796641053  0.6211924484654932  1.0000
  H   H5        1.0  0.4651353773346607  0.8985161055838856  0.5521259206611863  1.0000
  H   H6        1.0  0.5348646421585542  0.10148376448288295  0.05212595069737292  1.0000
  H   H7        1.0  0.034849297636818634  0.39844290055771076  0.052359859246697095  1.0000
  H   H8        1.0  0.9651507103285557  0.6015569738316856  0.5523598788875106  1.0000
  C   C1        1.0  0.6914978630634375  0.671691043965518  0.5317812513804072  1.0000
  C   C2        1.0  0.3085020666697362  0.3283089413575907  0.03178160090066637  1.0000
  C   C3        1.0  0.8084129703868962  0.17175005026211093  0.03140910159814452  1.0000
  C   C4        1.0  0.19158698084650347  0.8282497902941127  0.5314090078576288  1.0000
  H   H9        1.0  0.7392325962109914  0.6943973699319268  0.6978811855570328  1.0000
  H   H10       1.0  0.2607672842110405  0.30560259168002035  0.19788152153810487  1.0000
  H   H11       1.0  0.7605842769011126  0.19438797293267546  0.1974387165795763  1.0000
  H   H12       1.0  0.23941568505942415  0.8056120202928702  0.6974389441449389  1.0000
  C   C5        1.0  0.6778677168986058  0.5368171180158446  0.1684453096005235  1.0000
  C   C6        1.0  0.3221322914281124  0.46318283784991254  0.668444964822443  1.0000
  C   C7        1.0  0.8222033572895859  0.0368800146583928  0.6680757463343492  1.0000
  C   C8        1.0  0.17779663473153703  0.9631199865018919  0.16807578551130095  1.0000
  H   H13       1.0  0.7151362366280981  0.45650918970493115  0.051071281536196514  1.0000
  H   H14       1.0  0.2848637484848058  0.5434908241465  0.5510713780874903  1.0000
  H   H15       1.0  0.7850742796320895  0.9564702053375325  0.550749726848721  1.0000
  H   H16       1.0  0.21492574932221972  0.04352992725552131  0.05074968800836174  1.0000
  C   C9        1.0  0.5815494527161046  0.7439298004274654  0.4682937834746271  1.0000
  C   C10       1.0  0.4184505286720725  0.2560700167233688  0.9682938005272943  1.0000
  C   C11       1.0  0.918388751034487  0.24399185553468541  0.9681359659191183  1.0000
  C   C12       1.0  0.08161131778637536  0.7560082811199249  0.4681360966919038  1.0000
  C   C13       1.0  0.5183280140196577  0.7130305902638916  0.2572237292325709  1.0000
  C   C14       1.0  0.4816718682378181  0.2869695353317446  0.7572236262992135  1.0000
  C   C15       1.0  0.9816406664940379  0.21317006919585665  0.7570707929502575  1.0000
  C   C16       1.0  0.018359182878203168  0.7868299107288136  0.2570709500716893  1.0000
  H   H17       1.0  0.4318994124313887  0.7684021485780905  0.20906049020356832  1.0000
  H   H18       1.0  0.5681006103635061  0.23159790990068727  0.7090603884995194  1.0000
  H   H19       1.0  0.0680459178446633  0.26861042069188  0.7089999800007563  1.0000
  H   H20       1.0  0.9319541505853168  0.7313895700224468  0.2089999585171465  1.0000
  C   C17       1.0  0.5674343524392784  0.60960069191047  0.1101462405863369  1.0000
  C   C18       1.0  0.4325658116821705  0.39039930853810495  0.6101463073001896  1.0000
  C   C19       1.0  0.932616191307321  0.10974583904669165  0.6098981434623145  1.0000
  C   C20       1.0  0.06738387985962006  0.8902541712669463  0.1098979505926234  1.0000
  H   H21       1.0  0.5186739942035582  0.584719794625451  0.9459864924702744  1.0000
  H   H22       1.0  0.4813260951295795  0.41528027526515526  0.4459861009017672  1.0000
  H   H23       1.0  0.9814533006974837  0.08491511660229782  0.4457944955151878  1.0000
  H   H24       1.0  0.018546675180250542  0.9150849007515162  0.9457945188983543  1.0000
  C   C21       1.0  0.7389923800827968  0.5686884919261987  0.38092106185904395  1.0000
  C   C22       1.0  0.26100766470742065  0.43131148845285516  0.8809211260337304  1.0000
  C   C23       1.0  0.7609721480809967  0.06877829348333868  0.880448748701515  1.0000
  C   C24       1.0  0.23902792978155557  0.9312216297701105  0.3804486013465297  1.0000
