# CIF file generated from CASTEP cell file
# https://gist.github.com/blake-armstrong/93facdde07a6e0a1ddb51857dd48e3f1
# Structure converted from CASTEP

data_structure

_cell_length_a    10.460766616492799
_cell_length_b    9.398768141540691
_cell_length_c    5.615990339875410
_cell_angle_alpha 90.000000000000000
_cell_angle_beta  90.000000000000000
_cell_angle_gamma 90.000000000000000

_symmetry_space_group_name_H-M 'P 1'
_symmetry_Int_Tables_number 1

loop_
_atom_site_label
_atom_site_type_symbol
_atom_site_fract_x
_atom_site_fract_y
_atom_site_fract_z
H1       H     0.881311053753335    0.432183794681919    0.326643149263391
H2       H     0.461364777335564    0.898918867156290    0.554052491502200
H3       H     0.736003410905766    0.690755931282520    0.702628429927354
H4       H     0.715175979031230    0.451680730739736    0.046903810833903
H5       H     0.427491461160590    0.766218419770766    0.207097469387323
H6       H     0.517147757231428    0.581592609856521   -0.059811310356254
H7       H     0.118688946246666    0.567816205318081    0.826643149263391
H8       H     0.538635222664437    0.101081132843710    1.054052491502201
H9       H     0.263996589094234    0.309244068717480    1.202628429927355
H10      H     0.284824020968769    0.548319269260264    0.546903810833903
H11      H     0.572508538839409    0.233781580229234    0.707097469387324
H12      H     0.482852242768572    0.418407390143478    0.440188689643746
H13      H     0.618688946246665   -0.067816205318081    0.826643149263391
H14      H     1.038635222664437    0.398918867156290    1.054052491502201
H15      H     0.763996589094234    0.190755931282520    1.202628429927355
H16      H     0.784824020968770   -0.048319269260264    0.546903810833903
H17      H     1.072508538839410    0.266218419770765    0.707097469387324
H18      H     0.982852242768572    0.081592609856522    0.440188689643746
H19      H     0.381311053753335    1.067816205318079    0.326643149263391
H20      H    -0.038635222664436    0.601081132843710    0.554052491502200
H21      H     0.236003410905766    0.809244068717480    0.702628429927354
H22      H     0.215175979031231    1.048319269260264    0.046903810833903
H23      H    -0.072508538839410    0.733781580229234    0.207097469387323
H24      H     0.017147757231428    0.918407390143479   -0.059811310356254
C1       C     0.688770555830402    0.668395422970435    0.534175169130426
C2       C     0.677076610973808    0.532768202537200    0.165643022882073
C3       C     0.577766748237142    0.741387832495187    0.469786612791220
C4       C     0.514856218022190    0.710586702148602    0.255727197694385
C5       C     0.565543042857879    0.606449787712986    0.106448515634315
C6       C     0.737625798058385    0.564507089726485    0.381396905522519
C7       C     0.311229444169596    0.331604577029565    1.034175169130426
C8       C     0.322923389026191    0.467231797462799    0.665643022882073
C9       C     0.422233251762858    0.258612167504813    0.969786612791220
C10      C     0.485143781977812    0.289413297851399    0.755727197694385
C11      C     0.434456957142121    0.393550212287015    0.606448515634315
C12      C     0.262374201941615    0.435492910273515    0.881396905522520
C13      C     0.811229444169597    0.168395422970435    1.034175169130426
C14      C     0.822923389026191    0.032768202537200    0.665643022882073
C15      C     0.922233251762858    0.241387832495187    0.969786612791220
C16      C     0.985143781977810    0.210586702148601    0.755727197694385
C17      C     0.934456957142121    0.106449787712986    0.606448515634315
C18      C     0.762374201941615    0.064507089726485    0.881396905522520
C19      C     0.188770555830404    0.831604577029565    0.534175169130426
C20      C     0.177076610973809    0.967231797462799    0.165643022882073
C21      C     0.077766748237142    0.758612167504813    0.469786612791220
C22      C     0.014856218022188    0.789413297851398    0.255727197694385
C23      C     0.065543042857879    0.893550212287014    0.106448515634315
C24      C     0.237625798058385    0.935492910273515    0.381396905522519
O1       O     0.847429682279523    0.496083676705587    0.453710202148361
O2       O     0.533037514774901    0.842664871585188    0.625189112041771
O3       O     0.152570317720477    0.503916323294412    0.953710202148362
O4       O     0.466962485225099    0.157335128414812    1.125189112041773
O5       O     0.652570317720476   -0.003916323294413    0.953710202148362
O6       O     0.966962485225099    0.342664871585187    1.125189112041773
O7       O     0.347429682279523    1.003916323294412    0.453710202148361
O8       O     0.033037514774901    0.657335128414812    0.625189112041771
