data_cif

_audit_creation_method             'generated by GULP'

_symmetry_space_group_name_H-M     'P N A 21        '
_symmetry_Int_Tables_number        33
_symmetry_cell_setting             Orthorhombic

_cell_length_a                      10.080242
_cell_length_b                       9.609264
_cell_length_c                       5.745796
_cell_angle_alpha                   90.000000
_cell_angle_beta                    90.000000
_cell_angle_gamma                   90.000000

loop_
_atom_site_label
_atom_site_fract_x
_atom_site_fract_y
_atom_site_fract_z
_atom_site_occupancy
  O3          0.84892      0.47845      0.45030  1.0000
  H4          0.87154      0.41124      0.32715  1.0000
  O3          0.52540      0.82461      0.61397  1.0000
  H4          0.45417      0.87489      0.53220  1.0000
  C1          0.68737      0.65126      0.53362  1.0000
  H2          0.73262      0.66906      0.70231  1.0000
  C1          0.68232      0.52788      0.16527  1.0000
  H2          0.72281      0.45053      0.04710  1.0000
  C1          0.57576      0.72774      0.46688  1.0000
  C1          0.51665      0.70472      0.24981  1.0000
  H2          0.42956      0.76322      0.19695  1.0000
  C1          0.56999      0.60464      0.09849  1.0000
  H2          0.52396      0.58631      0.93025  1.0000
  C1          0.74003      0.55107      0.38359  1.0000
