data_image0
_chemical_formula_structural       O4H4O4H4C4H4C4H4C8H4C4H4C4
_chemical_formula_sum              "O8 H24 C24"
_cell_length_a       10.52023562720807
_cell_length_b       9.46163375319957
_cell_length_c       5.663015297258478
_cell_angle_alpha    89.98586738602731
_cell_angle_beta     89.98287880619513
_cell_angle_gamma    89.96935853835538

_space_group_name_H-M_alt    "P 1"
_space_group_IT_number       1

loop_
  _space_group_symop_operation_xyz
  'x, y, z'

loop_
  _atom_site_type_symbol
  _atom_site_label
  _atom_site_symmetry_multiplicity
  _atom_site_fract_x
  _atom_site_fract_y
  _atom_site_fract_z
  _atom_site_occupancy
  O   O1        1.0  0.8533749363080345  0.5058145766491131  0.44163204719940735  1.0000
  O   O2        1.0  0.14687551051505304  0.49476426904778475  0.9434538908281768  1.0000
  O   O3        1.0  0.6468854028982034  0.005655948008523426  0.9426526503410145  1.0000
  O   O4        1.0  0.3530317526796052  0.9946442016050728  0.4435240718568179  1.0000
  H   H1        1.0  0.8852889107495445  0.4387466583419322  0.31462519325209864  1.0000
  H   H2        1.0  0.11482758007418054  0.5615748862679621  0.8163453814338936  1.0000
  H   H3        1.0  0.6149134365040608  0.9386196342949503  0.8158550192130658  1.0000
  H   H4        1.0  0.38518368784982526  0.06148845230404233  0.31651641306110895  1.0000
  O   O5        1.0  0.5396779679705697  0.8482736718044225  0.6204159510082676  1.0000
  O   O6        1.0  0.46061986192726406  0.1519969656944226  0.12041084985721148  1.0000
  O   O7        1.0  0.9603801915209448  0.3482236397580176  0.11937126971989354  1.0000
  O   O8        1.0  0.039523487934474834  0.6517916316436666  0.6195464928259999  1.0000
  H   H5        1.0  0.46433005257414955  0.9016088815860088  0.5512216023027395  1.0000
  H   H6        1.0  0.5358527153884112  0.09861853100771237  0.05071722644224603  1.0000
  H   H7        1.0  0.035728490354814395  0.4015038359086326  0.05004353183818246  1.0000
  H   H8        1.0  0.9643837482155705  0.5984373747702166  0.5496603677817253  1.0000
  C   C1        1.0  0.6952773294162783  0.6757193159818404  0.5288684060933765  1.0000
  C   C2        1.0  0.3050388219272658  0.3248295684288975  0.0298278315654812  1.0000
  C   C3        1.0  0.8050883125480517  0.1753479232960841  0.02898500801439635  1.0000
  C   C4        1.0  0.19494390493813396  0.8247002377350084  0.5295364319309473  1.0000
  H   H9        1.0  0.7451479754872625  0.7009013857015962  0.6930215803251268  1.0000
  H   H10       1.0  0.25571878654171876  0.3002892857945886  0.19487549189988956  1.0000
  H   H11       1.0  0.7556353690479983  0.2002860397546324  0.19373500057628237  1.0000
  H   H12       1.0  0.24422524527314535  0.7999584240710643  0.6945181848943428  1.0000
  C   C5        1.0  0.6782682118357257  0.5361422123580585  0.17055026053736963  1.0000
  C   C6        1.0  0.32098913850619853  0.4634732960339049  0.6702265745951096  1.0000
  C   C7        1.0  0.8213928920772885  0.036279226334910035  0.6700260781252535  1.0000
  C   C8        1.0  0.17911349020203096  0.9636226912164509  0.17016770301912143  1.0000
  H   H13       1.0  0.715222987551762  0.45421100931373004  0.0526722591569643  1.0000
  H   H14       1.0  0.2837105080235535  0.5451630804953904  0.5521871959986805  1.0000
  H   H15       1.0  0.7842014205173973  0.9545183127611906  0.5521648649094612  1.0000
  H   H16       1.0  0.21641006009292368  0.045190370152844314  0.05199586109187074  1.0000
  C   C9        1.0  0.5831760528558543  0.7462605271152091  0.4697510683980017  1.0000
  C   C10       1.0  0.4167997288536132  0.25387378385875725  0.9697684256893911  1.0000
  C   C11       1.0  0.9168721057475846  0.24613255768187864  0.9689797576882568  1.0000
  C   C12       1.0  0.08324432138410505  0.7538468274188365  0.46924627122431967  1.0000
  C   C13       1.0  0.5176265949425657  0.7119558065870158  0.2630398755956735  1.0000
  C   C14       1.0  0.48172659495831416  0.2877208787529411  0.7621305333697812  1.0000
  C   C15       1.0  0.9820411694103452  0.2120545147947125  0.7616927843315304  1.0000
  C   C16       1.0  0.01836363177314758  0.787926841649347  0.26169001853266116  1.0000
  H   H17       1.0  0.42913372521514903  0.7662267348878237  0.21781112644189468  1.0000
  H   H18       1.0  0.5700415492332832  0.233294937357968  0.7161905497602736  1.0000
  H   H19       1.0  0.07031994232053211  0.26647575448987887  0.7157540886257497  1.0000
  H   H20       1.0  0.9301015835398164  0.7335628372830374  0.21564265327499707  1.0000
  C   C17       1.0  0.565914593169022  0.6070576984026229  0.11611230172807174  1.0000
  C   C18       1.0  0.4331629709579795  0.39243103625745057  0.615086468610528  1.0000
  C   C19       1.0  0.9336160795441051  0.1071896438430269  0.6149530790065978  1.0000
  C   C20       1.0  0.06701095056141085  0.8926366090269021  0.11482140448085894  1.0000
  H   H21       1.0  0.5146750823855828  0.5788784698857276  0.9547176097032117  1.0000
  H   H22       1.0  0.48395584714822115  0.42013195950208426  0.45290226306703657  1.0000
  H   H23       1.0  0.9845715785668796  0.07921307067419994  0.45305672635822347  1.0000
  H   H24       1.0  0.016340690433682373  0.9204524482510125  0.952597289839567  1.0000
  C   C21       1.0  0.742479948286903  0.5715604503445102  0.37786003223359155  1.0000
  C   C22       1.0  0.257431023177101  0.42864304253691465  0.8785922890534104  1.0000
  C   C23       1.0  0.7576195080710315  0.07140940738289937  0.8780267376861419  1.0000
  C   C24       1.0  0.24251167605784962  0.9286683213414116  0.37859755114215643  1.0000
