data_image0
_chemical_formula_structural       C32O16H24
_chemical_formula_sum              "C32 O16 H24"
_cell_length_a       5.0698
_cell_length_b       14.3178
_cell_length_c       9.6305
_cell_angle_alpha    90.0
_cell_angle_beta     93.26
_cell_angle_gamma    90.0

_space_group_name_H-M_alt    "P 1"
_space_group_IT_number       1

loop_
  _space_group_symop_operation_xyz
  'x, y, z'

loop_
  _atom_site_type_symbol
  _atom_site_label
  _atom_site_symmetry_multiplicity
  _atom_site_fract_x
  _atom_site_fract_y
  _atom_site_fract_z
  _atom_site_occupancy
  C   C1        1.0  0.16813050424858836  0.15023093271861906  0.6222227011786148  1.0000
  C   C2        1.0  0.6681301179178358  0.6502310939323879  0.6222225834078894  1.0000
  C   C3        1.0  0.8318698715118823  0.1502311323770922  0.8777774425539664  1.0000
  C   C4        1.0  0.33186947736223216  0.6502309664897667  0.8777773153340142  1.0000
  C   C5        1.0  0.8322440136878263  0.8497727813817444  0.3779059848750751  1.0000
  C   C6        1.0  0.3322434819768274  0.34977297659409207  0.37790590418440606  1.0000
  C   C7        1.0  0.16775606795610962  0.8497727776585305  0.12209408870319312  1.0000
  C   C8        1.0  0.6677556933505328  0.34977262086513583  0.12209396587149969  1.0000
  C   C9        1.0  0.09369384024732991  0.0643751119862704  0.6983066164209254  1.0000
  C   C10       1.0  0.5936937651323911  0.5643750096945891  0.6983066217220952  1.0000
  C   C11       1.0  0.9063061968686219  0.06437495729377904  0.8016935287523935  1.0000
  C   C12       1.0  0.40630612025676216  0.5643750028117308  0.8016934481853534  1.0000
  C   C13       1.0  0.9062995257717668  0.9356243167934202  0.3016756702589243  1.0000
  C   C14       1.0  0.40629947184526366  0.4356243208016399  0.30167566669458895  1.0000
  C   C15       1.0  0.09370058823742321  0.9356243063739609  0.19832435673772142  1.0000
  C   C16       1.0  0.5937004188414061  0.4356243213734169  0.19832436523805985  1.0000
  C   C17       1.0  0.19118359905012083  0.9789204890285029  0.6523184174662323  1.0000
  C   C18       1.0  0.6911834174879112  0.4789206000180831  0.6523183898123511  1.0000
  C   C19       1.0  0.808816400816453  0.9789207656587211  0.8476817588654469  1.0000
  C   C20       1.0  0.3088164903516743  0.47892071762572247  0.8476817679354276  1.0000
  C   C21       1.0  0.808580450913666  0.021069554301152038  0.34757808567596804  1.0000
  C   C22       1.0  0.308580533850654  0.521069434191475  0.3475781747200947  1.0000
  C   C23       1.0  0.19141929186167736  0.021069473922840493  0.1524218316155398  1.0000
  C   C24       1.0  0.6914193419011936  0.5210695545517073  0.15242184993217553  1.0000
  C   C25       1.0  0.09882618129857396  0.8942521510976301  0.7026437345434294  1.0000
  C   C26       1.0  0.5988261510319539  0.39425203845327267  0.7026437053286884  1.0000
  C   C27       1.0  0.9011737332962609  0.8942518838289746  0.7973561742836436  1.0000
  C   C28       1.0  0.40117391358310767  0.3942520497818627  0.7973562770189191  1.0000
  C   C29       1.0  0.9010411535574795  0.10573385630572643  0.29728723782653166  1.0000
  C   C30       1.0  0.4010411985189156  0.6057339549126676  0.29728720989394464  1.0000
  C   C31       1.0  0.0989589728817455  0.10573397850221984  0.20271273468527465  1.0000
  C   C32       1.0  0.5989589518923532  0.6057339376576023  0.20271272833911677  1.0000
  O   O1        1.0  0.012151476500422568  0.21641639761303152  0.5999828552238631  1.0000
  O   O2        1.0  0.5121518397580659  0.7164161593663024  0.5999829142767187  1.0000
  O   O3        1.0  0.9878481759202267  0.21641612895033693  0.9000171305402441  1.0000
  O   O4        1.0  0.4878485182841749  0.7164162431082535  0.9000170889841667  1.0000
  O   O5        1.0  0.9883261667491083  0.7835990894511548  0.4000555994830423  1.0000
  O   O6        1.0  0.4883266536633806  0.28359883806412234  0.40005571153483793  1.0000
  O   O7        1.0  0.011673755571665995  0.7835989824777514  0.0999442911510563  1.0000
  O   O8        1.0  0.5116741022825861  0.28359917425446246  0.09994441930686696  1.0000
  O   O9        1.0  0.4060977678262869  0.14655556981655254  0.5720663472115405  1.0000
  O   O10       1.0  0.9060978111093584  0.6465555334522478  0.5720663817112998  1.0000
  O   O11       1.0  0.5939020987787347  0.14655549386747532  0.9279335760763769  1.0000
  O   O12       1.0  0.09390217173807536  0.646555486598324  0.9279335546459774  1.0000
  O   O13       1.0  0.5944840556058619  0.8534392340322071  0.42828664012309187  1.0000
  O   O14       1.0  0.09448421097033119  0.35343923737479616  0.42828669778239364  1.0000
  O   O15       1.0  0.4055158414477359  0.853439254705651  0.0717133059329935  1.0000
  O   O16       1.0  0.9055158682672794  0.35343929179558276  0.07171335532948932  1.0000
  H   H1        1.0  0.3359902527093281  0.978670096818455  0.5732141524581627  1.0000
  H   H2        1.0  0.8359901260980234  0.47867007431665864  0.5732142783929014  1.0000
  H   H3        1.0  0.6640097272171016  0.9786701037384419  0.9267858424076638  1.0000
  H   H4        1.0  0.16400966300837627  0.4786701093403006  0.9267858344998264  1.0000
  H   H5        1.0  0.6636516277550307  0.0213229574214902  0.426632291063743  1.0000
  H   H6        1.0  0.16365167869254574  0.5213229798732948  0.42663228132511166  1.0000
  H   H7        1.0  0.3363483864390669  0.021323009778194308  0.0733677489161603  1.0000
  H   H8        1.0  0.8363483039082901  0.52132296752037  0.0733677760406237  1.0000
  H   H9        1.0  0.18002201404796841  0.8288157207328384  0.6662959639551113  1.0000
  H   H10       1.0  0.6800221364826159  0.328815739453776  0.6662960042649516  1.0000
  H   H11       1.0  0.8199781486422852  0.828815873681376  0.8337040100069096  1.0000
  H   H12       1.0  0.3199782278410688  0.3288159142057178  0.8337039642587825  1.0000
  H   H13       1.0  0.8197421482535617  0.17118999765390444  0.3335058527840754  1.0000
  H   H14       1.0  0.3197422067637033  0.6711899987850032  0.3335058406127254  1.0000
  H   H15       1.0  0.18025793676070015  0.17119009659377105  0.16649406647838233  1.0000
  H   H16       1.0  0.6802579109489282  0.6711900466216991  0.1664940744714117  1.0000
  H   H17       1.0  0.4337983700201421  0.20205532222296152  0.5071998367185937  1.0000
  H   H18       1.0  0.9337983872323422  0.7020553493349752  0.5071997875630224  1.0000
  H   H19       1.0  0.5662015704405211  0.2020553756978268  0.9928002169153309  1.0000
  H   H20       1.0  0.0662016760768953  0.7020553569983278  0.9928001884289902  1.0000
  H   H21       1.0  0.5670070622738069  0.797956444763998  0.49329268760656614  1.0000
  H   H22       1.0  0.06700710238928831  0.2979564577525969  0.49329268095943996  1.0000
  H   H23       1.0  0.4329929501875537  0.7979564145132333  0.006707265632178292  1.0000
  H   H24       1.0  0.9329929236482543  0.2979563734223709  0.006707234636700238  1.0000
