data_cif

_audit_creation_method             'generated by GULP'

_symmetry_space_group_name_H-M     'C 1 2/C 1       '
_symmetry_Int_Tables_number        15
_symmetry_cell_setting             Monoclinic  

_cell_length_a                       5.039874
_cell_length_b                      14.844386
_cell_length_c                       9.228435
_cell_angle_alpha                   90.000000
_cell_angle_beta                    94.636512
_cell_angle_gamma                   90.000000

loop_
_atom_site_label
_atom_site_fract_x
_atom_site_fract_y
_atom_site_fract_z
_atom_site_occupancy
  C2          0.18957      0.14694      0.62666  1.0000
  C5          0.09594      0.06177      0.69743  1.0000
  C5          0.19419      0.97825      0.65107  1.0000
  C5          0.10003      0.89637      0.70200  1.0000
  O3          0.05400      0.21366      0.60025  1.0000
  O1          0.43280      0.14251      0.57903  1.0000
  H4          0.34232      0.97655      0.57223  1.0000
  H4          0.17922      0.83306      0.66492  1.0000
  H6          0.44136      0.19877      0.52351  1.0000
