# CIF file generated from CASTEP cell file
# https://gist.github.com/blake-armstrong/93facdde07a6e0a1ddb51857dd48e3f1
# Structure converted from CASTEP

data_structure

_cell_length_a    5.154531486802237
_cell_length_b    14.147995924105750
_cell_length_c    9.516348347753830
_cell_angle_alpha 90.000023332058419
_cell_angle_beta  93.397115711163039
_cell_angle_gamma 90.000036001431383

_symmetry_space_group_name_H-M 'P 1'
_symmetry_Int_Tables_number 1

loop_
_atom_site_label
_atom_site_type_symbol
_atom_site_fract_x
_atom_site_fract_y
_atom_site_fract_z
H1       H     0.339160948759895   -0.023896717977268    0.576430211641356
H2       H     0.181672151281798   -0.175489144275338    0.668438150994352
H3       H     0.430615280167684    0.202007420828060    0.508614181259176
H4       H    -0.339160790590646   -0.023896766776123    0.923569808757377
H5       H    -0.181671958853736   -0.175489153621034    0.831561886120056
H6       H    -0.430615359047989    0.202007434205826    0.991385699247716
H7       H    -0.339161101187235    1.023896787124853    0.423569494525687
H8       H    -0.181672574105348    1.175489313950192    0.331561729912508
H9       H    -0.430615223300763    0.797992529132894    0.491385947820996
H10      H     0.339161314818021    1.023896903584430    0.076430536640382
H11      H     0.181672411206339    1.175489355064635    0.168438373955007
H12      H     0.430615894981494    0.797992413372744    0.008614422239926
H13      H     0.838813352743857    0.476838240441519    0.576235429661652
H14      H     0.681503336216893    0.325232009250031    0.668326097003510
H15      H     0.930130749911280    0.702832198357514    0.508415738139538
H16      H     0.161186895676098    0.476838334443641    0.923764459062501
H17      H     0.318496606307715    0.325232037314306    0.831673949085705
H18      H     0.069868806929349    0.702832300608254    0.991583528486701
H19      H     0.161186393647622    0.523161581421786    0.423764382810566
H20      H     0.318496753015614    0.674767866673010    0.331673867979386
H21      H     0.069868732682885    0.297167769422615    0.491583879852093
H22      H     0.838813346256362    0.523161529066119    0.076235615746174
H23      H     0.681503449088360    0.674767804782187    0.168326149105401
H24      H     0.930130942833046    0.297167725181862    0.008416073947462
C1       C     0.168988285214936    0.149335562565467    0.622977312463195
C2       C     0.094573237902585    0.062486855326209    0.699182759966177
C3       C     0.193169138734021   -0.023808955259671    0.654182072327259
C4       C     0.099813835877214   -0.109414267440253    0.703793216561947
C5       C    -0.168988303199129    0.149335548850839    0.877022473065685
C6       C    -0.094573007540564    0.062486825411228    0.800817148351887
C7       C    -0.193169016500006   -0.023809022793356    0.845817889846657
C8       C    -0.099813583656777   -0.109414275614014    0.796206802317825
C9       C    -0.168988433966164    0.850664787188150    0.377022544066744
C10      C    -0.094573089697980    0.937513213632087    0.300817012256121
C11      C    -0.193169281951730    1.023808981957349    0.345817917889028
C12      C    -0.099813798779075    1.109414338334398    0.296206726371908
C13      C     0.168988020594555    0.850664604258058    0.122977474118585
C14      C     0.094573061200638    0.937513184964344    0.199183029227619
C15      C     0.193169376361609    1.023809031793359    0.154182178169695
C16      C     0.099813725519039    1.109414315782040    0.203793416864478
C17      C     0.668632613923314    0.650085440773728    0.622825237844672
C18      C     0.594458415355454    0.563226990121329    0.699121064775796
C19      C     0.692975402298719    0.476925543151252    0.654073911130274
C20      C     0.599728313531983    0.391313679141540    0.703734126064420
C21      C     0.331367320727179    0.650085356009560    0.877174581796564
C22      C     0.405541782275117    0.563227037215386    0.800878899043589
C23      C     0.307024621292615    0.476925564633055    0.845925994316427
C24      C     0.400271503551023    0.391313711097019    0.796265765398863
C25      C     0.331366973757070    0.349914495689017    0.377174824995317
C26      C     0.405540909477911    0.436772955444067    0.300878826961026
C27      C     0.307024860468955    0.523074456275047    0.345925942138739
C28      C     0.400271494653809    0.608686294585282    0.296265899834593
C29      C     0.668632941007144    0.349914603490992    0.122825427400192
C30      C     0.594458683937984    0.436773004770186    0.199121112235369
C31      C     0.692975179432969    0.523074474666548    0.154074038901064
C32      C     0.599728842515768    0.608686274216874    0.203734061079149
O1       O     0.015209749456602    0.215749862318155    0.599076460994495
O2       O     0.404182182975346    0.146146112978234    0.574419738350053
O3       O    -0.015209689834119    0.215749989220186    0.900923543956689
O4       O    -0.404182107602717    0.146146113238614    0.925580123961108
O5       O    -0.015209537957293    0.784250141003427    0.400923473563814
O6       O    -0.404182128530226    0.853853934892448    0.425580052685303
O7       O     0.015209473919220    0.784250051468642    0.099076275993689
O8       O     0.404182087672934    0.853853831198322    0.074420111209514
O9       O     0.514509570927529    0.716375017327571    0.598730237209340
O10      O     0.903929277602806    0.647036771018325    0.574418822086398
O11      O     0.485491770819745    0.716374981595684    0.901270434400882
O12      O     0.096070505771533    0.647037000893977    0.925580187412856
O13      O     0.485490700739543    0.283624905083167    0.401269980574440
O14      O     0.096069881499246    0.352963137448463    0.425580714913203
O15      O     0.514508465097057    0.283624669897214    0.098729822855424
O16      O     0.903929479924138    0.352963032363668    0.074419527084803
