data_image0
_chemical_formula_structural       C32O16H24
_chemical_formula_sum              "C32 O16 H24"
_cell_length_a       5.862840942307396
_cell_length_b       15.848010494392085
_cell_length_c       9.150589110946145
_cell_angle_alpha    90.10954636581675
_cell_angle_beta     83.71665353149238
_cell_angle_gamma    90.14052514242717

_space_group_name_H-M_alt    "P 1"
_space_group_IT_number       1

loop_
  _space_group_symop_operation_xyz
  'x, y, z'

loop_
  _atom_site_type_symbol
  _atom_site_label
  _atom_site_symmetry_multiplicity
  _atom_site_fract_x
  _atom_site_fract_y
  _atom_site_fract_z
  _atom_site_occupancy
  C   C1        1.0  0.16122625649689776  0.15489216964718472  0.6102318350414898  1.0000
  C   C2        1.0  0.6609972934708835  0.6547736948890758  0.6098001003147808  1.0000
  C   C3        1.0  0.8393367624798499  0.15532780200962193  0.8884784071007003  1.0000
  C   C4        1.0  0.3391977895915781  0.6552380896303938  0.8882876989465371  1.0000
  C   C5        1.0  0.8406452269074187  0.8449745283043353  0.3908111162214932  1.0000
  C   C6        1.0  0.3412719789982468  0.34494865950770964  0.39088613094755886  1.0000
  C   C7        1.0  0.16252397068659785  0.8449825432709712  0.11152336642802962  1.0000
  C   C8        1.0  0.6628028386921698  0.3449795832648475  0.11160104528876676  1.0000
  C   C9        1.0  0.0860466714269505  0.07644630624317275  0.6892546817776839  1.0000
  C   C10       1.0  0.5860136627596735  0.5763819048129638  0.6890925748873763  1.0000
  C   C11       1.0  0.9135248001761517  0.07666976852828924  0.8092888136867955  1.0000
  C   C12       1.0  0.4134599958404326  0.5766033973248852  0.8091073480943841  1.0000
  C   C13       1.0  0.9145625624319389  0.9233133274723382  0.3109487873955429  1.0000
  C   C14       1.0  0.4150567006857919  0.42331102161123396  0.31098932535700324  1.0000
  C   C15       1.0  0.08678443536009847  0.9234257045899786  0.19071923023976625  1.0000
  C   C16       1.0  0.5870251082814459  0.42344870419583064  0.19064407237618938  1.0000
  C   C17       1.0  0.1737932899053661  0.9997055092804377  0.6335196831865831  1.0000
  C   C18       1.0  0.6740136214116442  0.49961358147570883  0.6335463898184173  1.0000
  C   C19       1.0  0.8253619638232046  2.0470973267405768e-05  0.8654506583070556  1.0000
  C   C20       1.0  0.32535484730355707  0.4999629535377055  0.8653346194556816  1.0000
  C   C21       1.0  0.8254276430914667  0.99989787302506  0.36659432041085344  1.0000
  C   C22       1.0  0.32590229578499197  0.4999197227040406  0.3666063784659183  1.0000
  C   C23       1.0  0.1725774370680339  0.0002465234886348071  0.13395456413646306  1.0000
  C   C24       1.0  0.6725619226723352  0.5002503813540903  0.13360043577329317  1.0000
  C   C25       1.0  0.08834019276733383  0.9236623269185461  0.6927412068691915  1.0000
  C   C26       1.0  0.5886248788576228  0.42359136666245945  0.6928967801299354  1.0000
  C   C27       1.0  0.911456378347483  0.9238303459799118  0.8073694125332312  1.0000
  C   C28       1.0  0.4117366209436967  0.42376327581824214  0.8075167331206583  1.0000
  C   C29       1.0  0.909122115714561  0.07610974513397674  0.3070740915645925  1.0000
  C   C30       1.0  0.40915471972878814  0.5760920054309756  0.306782953875978  1.0000
  C   C31       1.0  0.08516045571448203  0.07626475492464659  0.1918406390599641  1.0000
  C   C32       1.0  0.5848778631311785  0.5762752710778282  0.1913698901883237  1.0000
  O   O1        1.0  0.02379052358449748  0.2136088933499186  0.5974301277659958  1.0000
  O   O2        1.0  0.5229873252147857  0.7131666287889655  0.5958676981581179  1.0000
  O   O3        1.0  0.977821533809243  0.2137403940692731  0.9029591359562071  1.0000
  O   O4        1.0  0.4769864948360996  0.7140602118293757  0.901417862770362  1.0000
  O   O5        1.0  0.9788753621606963  0.7867062418235237  0.405016906258492  1.0000
  O   O6        1.0  0.4795174177504359  0.28667193446808037  0.4050868602459422  1.0000
  O   O7        1.0  0.025869047016528417  0.7856710741390922  0.09946375330894562  1.0000
  O   O8        1.0  0.5260430353109233  0.28569870050885965  0.099470718998215  1.0000
  O   O9        1.0  0.3737596553054929  0.15492956446010445  0.550024476016846  1.0000
  O   O10       1.0  0.8739249120597125  0.6550367616508469  0.5503822690717126  1.0000
  O   O11       1.0  0.6263127179528601  0.15549267082912202  0.947925913046526  1.0000
  O   O12       1.0  0.12675860776088035  0.6550936013950274  0.9488846392769151  1.0000
  O   O13       1.0  0.6279144621173484  0.8448911786544242  0.450777761691954  1.0000
  O   O14       1.0  0.12857991647538602  0.34483790404006603  0.4508904105342075  1.0000
  O   O15       1.0  0.37425843713131884  0.8457315381573653  0.04952901550225738  1.0000
  O   O16       1.0  0.8746293681045266  0.3456851585599899  0.04982778838561312  1.0000
  H   H1        1.0  0.3063416902116698  5.247612232128773e-05  0.5397093436925353  1.0000
  H   H2        1.0  0.8064393214066309  0.49993702067094326  0.5396334637045385  1.0000
  H   H3        1.0  0.6923866147537788  0.000619515342693111  0.9590341408345096  1.0000
  H   H4        1.0  0.19223668167491897  0.5005735087858372  0.9588091661215196  1.0000
  H   H5        1.0  0.6931519227918904  0.9992276997270867  0.4606491660141303  1.0000
  H   H6        1.0  0.19399915507749096  0.49922516327983896  0.46085812450808683  1.0000
  H   H7        1.0  0.3050556185853796  0.9998719021906699  0.04012034796623873  1.0000
  H   H8        1.0  0.8047751709046699  0.49982492268975454  0.03960452989850822  1.0000
  H   H9        1.0  0.15911263845319654  0.8641296915670282  0.6476007969219864  1.0000
  H   H10       1.0  0.6595970654785507  0.3640537856368379  0.647932281708601  1.0000
  H   H11       1.0  0.8409536722671194  0.8643977994001614  0.8533144496604066  1.0000
  H   H12       1.0  0.34129758862958276  0.3643477035182055  0.853561428212957  1.0000
  H   H13       1.0  0.8381156249021859  0.13552334994329834  0.3525455746080274  1.0000
  H   H14       1.0  0.33811688033327625  0.6355182924893776  0.35228544241025667  1.0000
  H   H15       1.0  0.15396957809572212  0.13575277478971404  0.14503190479991984  1.0000
  H   H16       1.0  0.6533201717837324  0.6357585169463862  0.14437409251429312  1.0000
  H   H17       1.0  0.4109438823377189  0.2112435104037692  0.4897402269306362  1.0000
  H   H18       1.0  0.9108966934890232  0.7112665590784836  0.48977562918268913  1.0000
  H   H19       1.0  0.5910810856727725  0.2110616953131666  0.010554976428011065  1.0000
  H   H20       1.0  0.09154947771222625  0.710806108451152  0.010996134661406476  1.0000
  H   H21       1.0  0.5910668535647504  0.7886833372052999  0.5113601703871583  1.0000
  H   H22       1.0  0.0918350111414171  0.28880088228716966  0.5119785958307187  1.0000
  H   H23       1.0  0.41045564415530467  0.7897748992608231  0.988446226699742  1.0000
  H   H24       1.0  0.9111069372373494  0.28959461377328527  0.9890930761859652  1.0000
