data_C4H3O2
_audit_creation_method 'chmpy python library version 1.0a1'
_cell_length_a 7.173826
_cell_length_b 7.173826
_cell_length_c 9.761542
_cell_angle_alpha 87.147964
_cell_angle_beta 92.852036
_cell_angle_gamma 38.01169000000001
loop_
_symmetry_equiv_pos_site_id
_symmetry_equiv_pos_as_xyz
                   1 -x,-y,-z
                   2 +x,+y,+z
                   3 -x,+y,1/2-z
                   4 +x,-y,1/2+z
                   5 1/2-x,1/2-y,-z
                   6 1/2+x,1/2+y,+z
                   7 1/2-x,1/2+y,1/2-z
                   8 1/2+x,1/2-y,1/2+z
loop_
_atom_site_label
_atom_site_type_symbol
_atom_site_fract_x
_atom_site_fract_y
_atom_site_fract_z
_atom_site_occupancy
C C       0.175968000000       0.130257000000       0.624590000000       1.000000000000
C C       0.091969000000       0.039515000000       0.697738000000       1.000000000000
C C       0.190172000000       0.948103000000       0.653621000000       1.000000000000
C C       0.099892000000       0.858602000000       0.703492000000       1.000000000000
O O       0.019826000000       0.204547000000       0.606555000000       1.000000000000
O O       0.426865000000       0.122834000000       0.567435000000       1.000000000000
H H       0.335739000000       0.948835000000       0.575790000000       1.000000000000
H H       0.187868000000       0.788979000000       0.670921000000       1.000000000000
H H       0.450190000000       0.184387000000       0.511701000000       1.000000000000
#END