data_PHTHAC02.b3lyp.6-311G**.dma4.-122.8449.1.6101
_audit_creation_method 'generated by cspy2.0'
_cell_length_a 4.8225
_cell_length_b 14.7321
_cell_length_c 9.6617
_cell_angle_alpha 90.212
_cell_angle_beta 93.2082
_cell_angle_gamma 90.3724
loop_
_symmetry_equiv_pos_site_id
_symmetry_equiv_pos_as_xyz
1 +x,+y,+z
loop_
_atom_site_label
_atom_site_type_symbol
_atom_site_fract_x
_atom_site_fract_y
_atom_site_fract_z
_atom_site_occupancy
C1 C       0.178068390000       0.147233210000       0.624907640000       1.000000000000
C2 C      -0.173087440000       0.146757250000       0.877286770000       1.000000000000
C3 C       0.097490440000       0.062969490000       0.698291420000       1.000000000000
C4 C      -0.098872730000       0.062867730000       0.801099580000       1.000000000000
C5 C       0.196188980000      -0.019655760000       0.650605520000       1.000000000000
C6 C      -0.203826410000      -0.019802970000       0.846029740000       1.000000000000
C7 C       0.095634240000      -0.101816680000       0.699549400000       1.000000000000
C8 C      -0.109486340000      -0.101868950000       0.794347920000       1.000000000000
C9 C       0.824405380000       0.851101330000       0.377304960000       1.000000000000
C10 C       1.156408250000       0.852755950000       0.118275420000       1.000000000000
C11 C       0.897925800000       0.935660210000       0.302756900000       1.000000000000
C12 C       1.086347780000       0.936349160000       0.196281020000       1.000000000000
C13 C       0.801412150000       1.017993540000       0.352656920000       1.000000000000
C14 C       1.186262590000       1.019310630000       0.149779790000       1.000000000000
C15 C       0.896659310000       1.100443970000       0.302213260000       1.000000000000
C16 C       1.094394590000       1.101085970000       0.203600260000       1.000000000000
C17 C       0.324405380000       0.351101330000       0.377304960000       1.000000000000
C18 C       0.656408250000       0.352755950000       0.118275420000       1.000000000000
C19 C       0.397925800000       0.435660210000       0.302756900000       1.000000000000
C20 C       0.586347780000       0.436349160000       0.196281020000       1.000000000000
C21 C       0.301412150000       0.517993540000       0.352656920000       1.000000000000
C22 C       0.686262590000       0.519310630000       0.149779790000       1.000000000000
C23 C       0.396659310000       0.600443970000       0.302213260000       1.000000000000
C24 C       0.594394590000       0.601085970000       0.203600260000       1.000000000000
C25 C       0.678068390000       0.647233210000       0.624907640000       1.000000000000
C26 C       0.326912560000       0.646757250000       0.877286770000       1.000000000000
C27 C       0.597490440000       0.562969490000       0.698291420000       1.000000000000
C28 C       0.401127270000       0.562867730000       0.801099580000       1.000000000000
C29 C       0.696188980000       0.480344240000       0.650605520000       1.000000000000
C30 C       0.296173590000       0.480197030000       0.846029740000       1.000000000000
C31 C       0.595634240000       0.398183320000       0.699549400000       1.000000000000
C32 C       0.390513660000       0.398131050000       0.794347920000       1.000000000000
O1 O       0.017447370000       0.210491790000       0.603379810000       1.000000000000
O2 O      -0.007707400000       0.209258870000       0.900911240000       1.000000000000
O3 O       0.427578170000       0.144423720000       0.576623030000       1.000000000000
O4 O      -0.422792870000       0.144396380000       0.925485170000       1.000000000000
O5 O       0.987318050000       0.788128070000       0.395687600000       1.000000000000
O6 O       0.990907920000       0.789969880000       0.097306920000       1.000000000000
O7 O       0.578988200000       0.853319140000       0.430151860000       1.000000000000
O8 O       1.401931830000       0.855708470000       0.065534830000       1.000000000000
O9 O       0.487318050000       0.288128070000       0.395687600000       1.000000000000
O10 O       0.490907920000       0.289969880000       0.097306920000       1.000000000000
O11 O       0.078988200000       0.353319140000       0.430151860000       1.000000000000
O12 O       0.901931830000       0.355708470000       0.065534830000       1.000000000000
O13 O       0.517447370000       0.710491790000       0.603379810000       1.000000000000
O14 O       0.492292600000       0.709258870000       0.900911240000       1.000000000000
O15 O       0.927578170000       0.644423720000       0.576623030000       1.000000000000
O16 O       0.077207130000       0.644396380000       0.925485170000       1.000000000000
H1 H       0.331995630000      -0.021770860000       0.579146680000       1.000000000000
H2 H      -0.339798560000      -0.022061300000       0.917415670000       1.000000000000
H3 H       0.165047350000      -0.161236600000       0.665095430000       1.000000000000
H4 H      -0.183398100000      -0.161328360000       0.826819960000       1.000000000000
H5 H       0.448766460000       0.196690830000       0.519945810000       1.000000000000
H6 H      -0.440041550000       0.196236170000       0.983898040000       1.000000000000
H7 H       0.671083250000       1.019701770000       0.426662800000       1.000000000000
H8 H       1.316681480000       1.021975790000       0.075863830000       1.000000000000
H9 H       0.828824900000       1.159656820000       0.338231570000       1.000000000000
H10 H       1.164675070000       1.160751640000       0.170026320000       1.000000000000
H11 H       0.562906930000       0.800905810000       0.487048900000       1.000000000000
H12 H       1.415870970000       0.804015620000       0.006497150000       1.000000000000
H13 H       0.171083250000       0.519701770000       0.426662800000       1.000000000000
H14 H       0.816681480000       0.521975790000       0.075863830000       1.000000000000
H15 H       0.328824900000       0.659656820000       0.338231570000       1.000000000000
H16 H       0.664675070000       0.660751640000       0.170026320000       1.000000000000
H17 H       0.062906930000       0.300905810000       0.487048900000       1.000000000000
H18 H       0.915870970000       0.304015620000       0.006497150000       1.000000000000
H19 H       0.831995630000       0.478229140000       0.579146680000       1.000000000000
H20 H       0.160201440000       0.477938700000       0.917415670000       1.000000000000
H21 H       0.665047350000       0.338763400000       0.665095430000       1.000000000000
H22 H       0.316601900000       0.338671640000       0.826819960000       1.000000000000
H23 H       0.948766460000       0.696690830000       0.519945810000       1.000000000000
H24 H       0.059958450000       0.696236170000       0.983898040000       1.000000000000
#END