data_image0
_chemical_formula_structural       C8H12O12
_chemical_formula_sum              "C8 H12 O12"
_cell_length_a       7.71
_cell_length_b       6.0
_cell_length_c       6.23
_cell_angle_alpha    90.0
_cell_angle_beta     100.1
_cell_angle_gamma    90.0

_space_group_name_H-M_alt    "P 1"
_space_group_IT_number       1

loop_
  _space_group_symop_operation_xyz
  'x, y, z'

loop_
  _atom_site_type_symbol
  _atom_site_label
  _atom_site_symmetry_multiplicity
  _atom_site_fract_x
  _atom_site_fract_y
  _atom_site_fract_z
  _atom_site_occupancy
  C   C1        1.0  0.2996421438621836  0.016858744159788695  0.29518844865260657  1.0000
  C   C2        1.0  0.7003568060007059  0.5168578168591512  0.7048111847627587  1.0000
  C   C3        1.0  0.4723666467358922  0.9986964909649015  0.20876089446792997  1.0000
  C   C4        1.0  0.5276333141294886  0.4986981309154319  0.7912396035289809  1.0000
  C   C5        1.0  0.19845033149022104  0.22169605369398498  0.1819093270161829  1.0000
  C   C6        1.0  0.8015489697550674  0.7216931817354892  0.8180874444566166  1.0000
  C   C7        1.0  0.01700225429329319  0.24482372672410396  0.24717661516005107  1.0000
  C   C8        1.0  0.9829966190230478  0.7448230601081433  0.7528176068300312  1.0000
  H   H1        1.0  0.2218002415835289  0.8658476459267518  0.243012397689557  1.0000
  H   H2        1.0  0.7782007130813186  0.36584846140683475  0.7569890857377771  1.0000
  H   H3        1.0  0.17368133779982473  0.19250661841299316  0.00484850005287722  1.0000
  H   H4        1.0  0.8263150883988718  0.6925109778692393  0.9951480694959866  1.0000
  H   H5        1.0  0.23527755898072927  0.9844361107952202  0.585291167217934  1.0000
  H   H6        1.0  0.7647222520606147  0.48443622026395416  0.4147106311842233  1.0000
  H   H7        1.0  0.5544177068971382  0.9554164932752715  0.924241808080541  1.0000
  H   H8        1.0  0.4455827106302214  0.4554154481982533  0.07575687172423493  1.0000
  H   H9        1.0  0.3422990471882267  0.44408734967925156  0.37840242550981207  1.0000
  H   H10       1.0  0.6577037782580438  0.9440840909275996  0.6216023378159446  1.0000
  H   H11       1.0  0.8072243804473019  0.06020039865199046  0.25352483839785456  1.0000
  H   H12       1.0  0.19277483613930835  0.5602004452841144  0.7464748231234173  1.0000
  O   O1        1.0  0.336863250495957  0.04051690810216553  0.5231926111174576  1.0000
  O   O2        1.0  0.6631363442513148  0.5405187774576424  0.4768071821624454  1.0000
  O   O3        1.0  0.44461035754082234  0.9659713468932871  0.9967073314720184  1.0000
  O   O4        1.0  0.5553903351404917  0.4659717751038564  0.0032926640818268823  1.0000
  O   O5        1.0  0.6184882741860268  0.01937614429808794  0.3272012460010963  1.0000
  O   O6        1.0  0.3815117824357377  0.5193760716172968  0.6727983647486148  1.0000
  O   O7        1.0  0.2994551107581881  0.4209242338599237  0.21990527902324078  1.0000
  O   O8        1.0  0.7005450492806021  0.9209207985376962  0.7800982137305765  1.0000
  O   O9        1.0  0.9271493465963456  0.05669473133363907  0.20803125193987024  1.0000
  O   O10       1.0  0.07285101519450272  0.5566965669684737  0.7919707590023922  1.0000
  O   O11       1.0  0.9643099047915696  0.41744734816057083  0.32073109790019494  1.0000
  O   O12       1.0  0.03569270187541857  0.9174479641300306  0.6792699699431256  1.0000
