# CIF file generated from CASTEP cell file
# https://gist.github.com/blake-armstrong/93facdde07a6e0a1ddb51857dd48e3f1
# Structure converted from CASTEP

data_structure

_cell_length_a    7.693762171189567
_cell_length_b    6.079692787671350
_cell_length_c    6.181372618359285
_cell_angle_alpha 90.000000000000000
_cell_angle_beta  99.415593521004325
_cell_angle_gamma 90.000000000000000

_symmetry_space_group_name_H-M 'P 1'
_symmetry_Int_Tables_number 1

loop_
_atom_site_label
_atom_site_type_symbol
_atom_site_fract_x
_atom_site_fract_y
_atom_site_fract_z
H1       H     0.220391228140013   -0.128464512806979    0.243552985336316
H2       H     0.179589284874051    0.197175891665864    0.005691213737869
H3       H     0.235930219654266   -0.017193069834496    0.586013012107710
H4       H     0.553039771687866   -0.045972400239999   -0.082742261634777
H5       H     0.342065223871195    0.439056955367265    0.385941749272559
H6       H    -0.193283494237438    0.063758704636937    0.243925691003133
H7       H     0.779608714667910    0.371535487193021    0.756446882398792
H8       H     0.820410681037262    0.697175891665864    0.994308817037489
H9       H     0.764069746257048    0.482806930165504    0.413987018667648
H10      H     0.446960171120058    0.454027599760001    1.082742129369886
H11      H     0.657934718936728    0.939056955367265    0.614058118462548
H12      H     1.193283460148750    0.563758704636937    0.756074339772224
C1       C     0.300137320386768    0.018629366231987    0.295495418022386
C2       C     0.472452608192723   -0.002282375753538    0.205094364741212
C3       C     0.200970718442110    0.223051179088011    0.183901745824401
C4       C     0.017917325360049    0.244541663622590    0.248045904245758
C5       C     0.699862622421154    0.518629366231988    0.704504449712721
C6       C     0.527547487420276    0.497717624246462    0.794905666034145
C7       C     0.799029247469203    0.723051179088010    0.816098284950957
C8       C     0.982082617447875    0.744541663622589    0.751953963489350
O1       O     0.337165253346772    0.040527386460819    0.524238150931722
O2       O     0.443585373163686   -0.034297576542734   -0.007878176321667
O3       O     0.618668225358261    0.015997524891365    0.321156740599873
O4       O     0.301793492370468    0.418481197944535    0.226756617355126
O5       O    -0.074385061760401    0.063067168576277    0.195280605600292
O6       O    -0.033186844075117    0.409422896692101    0.332759803193648
O7       O     0.662834842266228    0.540527386460819    0.475761879843633
O8       O     0.556414699345922    0.465702423457266    1.007878044056774
O9       O     0.381331740553051    0.515997524891364    0.678843290175484
O10      O     0.698206473540845    0.918481197944535    0.773243413420231
O11      O     1.074385004568325    0.563067168576278    0.804719262134815
O12      O     1.033186809986429    0.909422896692101    0.667240227581708
