data_TARTAC01.b3lyp.6-311G**.dma4.-120.2392.1.6968
_audit_creation_method 'generated by cspy2.0'
_cell_length_a 7.8263
_cell_length_b 5.9856
_cell_length_c 6.3864
_cell_angle_alpha 90.0
_cell_angle_beta 100.9116
_cell_angle_gamma 90.0
loop_
_symmetry_equiv_pos_site_id
_symmetry_equiv_pos_as_xyz
1 +x,+y,+z
loop_
_atom_site_label
_atom_site_type_symbol
_atom_site_fract_x
_atom_site_fract_y
_atom_site_fract_z
_atom_site_occupancy
C1 C       0.292927470000       0.014885420000       0.281294720000       1.000000000000
C2 C       0.459060090000      -0.009106710000       0.191022390000       1.000000000000
C3 C       0.201109970000       0.228669390000       0.183319460000       1.000000000000
C4 C       0.026358270000       0.255753130000       0.250534900000       1.000000000000
C5 C       0.707573150000       0.514885420000       0.714722760000       1.000000000000
C6 C       0.541440540000       0.490893290000       0.804995070000       1.000000000000
C7 C       0.799390650000       0.728669390000       0.812698000000       1.000000000000
C8 C       0.974142340000       0.755753130000       0.745482570000       1.000000000000
H1 H       0.208245340000      -0.138443850000       0.223579830000       1.000000000000
H2 H       0.168904590000       0.202363690000       0.009076940000       1.000000000000
H3 H       0.238610810000      -0.020405680000       0.563839140000       1.000000000000
H4 H       0.526453320000      -0.043676070000      -0.087251150000       1.000000000000
H5 H       0.349705280000       0.431394370000       0.389469460000       1.000000000000
H6 H      -0.186841490000       0.077665340000       0.231216050000       1.000000000000
H7 H       0.792255290000       0.361556150000       0.772437650000       1.000000000000
H8 H       0.831596010000       0.702363690000       0.986940530000       1.000000000000
H9 H       0.761889810000       0.479594320000       0.432178340000       1.000000000000
H10 H       0.474047300000       0.456323930000       1.083268620000       1.000000000000
H11 H       0.650795350000       0.931394370000       0.606548010000       1.000000000000
H12 H       1.187342100000       0.577665340000       0.764801430000       1.000000000000
O1 O       0.339108710000       0.031021820000       0.503473460000       1.000000000000
O2 O       0.422533470000      -0.032783130000      -0.017528640000       1.000000000000
O3 O       0.602653230000       0.000182740000       0.298129880000       1.000000000000
O4 O       0.307699650000       0.417467460000       0.236266970000       1.000000000000
O5 O      -0.072816290000       0.083448990000       0.179933810000       1.000000000000
O6 O      -0.014176130000       0.410225060000       0.349713220000       1.000000000000
O7 O       0.661391910000       0.531021820000       0.492544020000       1.000000000000
O8 O       0.577967140000       0.467216870000       1.013546120000       1.000000000000
O9 O       0.397847380000       0.500182740000       0.697887600000       1.000000000000
O10 O       0.692800960000       0.917467460000       0.759750510000       1.000000000000
O11 O       1.073316890000       0.583449000000       0.816083660000       1.000000000000
O12 O       1.014676750000       0.910225050000       0.646304240000       1.000000000000
#END