data_cif

_audit_creation_method             'generated by GULP'

_symmetry_space_group_name_H-M     'P 1 21 1        '
_symmetry_Int_Tables_number        4
_symmetry_cell_setting             Monoclinic  

_cell_length_a                       7.900313
_cell_length_b                       6.097836
_cell_length_c                       6.120970
_cell_angle_alpha                   90.000000
_cell_angle_beta                    99.024592
_cell_angle_gamma                   90.000000

loop_
_atom_site_label
_atom_site_fract_x
_atom_site_fract_y
_atom_site_fract_z
_atom_site_occupancy
  C2          0.30545      0.01590      0.32680  1.0000
  C5          0.47712      0.99175      0.23853  1.0000
  C2          0.19282      0.19286      0.19099  1.0000
  C5          0.00765      0.19475      0.24448  1.0000
  H1          0.24230      0.85579      0.29737  1.0000
  H1          0.17787      0.14623      0.01588  1.0000
  H6          0.24230      0.98619      0.62706  1.0000
  H6          0.57193      0.93311      0.98945  1.0000
  H6          0.30967      0.42603      0.38341  1.0000
  H6          0.82259      0.03445      0.28048  1.0000
  O4          0.32944      0.06815      0.55959  1.0000
  O4          0.45843      0.91353      0.03240  1.0000
  O3          0.61867      0.03809      0.33862  1.0000
  O4          0.27533      0.40552      0.22212  1.0000
  O4          0.93477      0.99724      0.23990  1.0000
  O3          0.92811      0.35631      0.28642  1.0000
