data_image0
_chemical_formula_structural       C8H12O12
_chemical_formula_sum              "C8 H12 O12"
_cell_length_a       7.583140290163509
_cell_length_b       6.157194708399774
_cell_length_c       6.1087289552253745
_cell_angle_alpha    90.05539092849656
_cell_angle_beta     98.90053625438054
_cell_angle_gamma    90.03326002522094

_space_group_name_H-M_alt    "P 1"
_space_group_IT_number       1

loop_
  _space_group_symop_operation_xyz
  'x, y, z'

loop_
  _atom_site_type_symbol
  _atom_site_label
  _atom_site_symmetry_multiplicity
  _atom_site_fract_x
  _atom_site_fract_y
  _atom_site_fract_z
  _atom_site_occupancy
  C   C1        1.0  0.3042990832834602  0.02170102977284079  0.2981200143951898  1.0000
  C   C2        1.0  0.6955996436524123  0.5221880815529384  0.7016227559300197  1.0000
  C   C3        1.0  0.47879121485051257  0.002125484272039513  0.20665024335998763  1.0000
  C   C4        1.0  0.521206786417597  0.5026714780299306  0.7933210146321302  1.0000
  C   C5        1.0  0.20443013307798075  0.22288941038108326  0.1884296447775355  1.0000
  C   C6        1.0  0.7955782061185573  0.7235774809765307  0.8113472693091872  1.0000
  C   C7        1.0  0.017757751934330303  0.2398809391875926  0.2493654168646575  1.0000
  C   C8        1.0  0.9822990401761998  0.7404511444037472  0.7507881160913139  1.0000
  H   H1        1.0  0.22221045037225717  0.8771710060233221  0.2403234570722087  1.0000
  H   H2        1.0  0.7775770530642105  0.377858823275792  0.7593695095102244  1.0000
  H   H3        1.0  0.18569889119938943  0.19728208206961229  0.007022935093955224  1.0000
  H   H4        1.0  0.8141048308920982  0.6979637284886481  0.9926491853223002  1.0000
  H   H5        1.0  0.23469337815654415  0.9798260775648254  0.5913497893222535  1.0000
  H   H6        1.0  0.7652253302033228  0.47961319353340737  0.40858933627868316  1.0000
  H   H7        1.0  0.5643725096711143  0.9606130917361755  0.9080459404462089  1.0000
  H   H8        1.0  0.4359106651518056  0.46110495572326227  0.09150324987627452  1.0000
  H   H9        1.0  0.34386808399598506  0.4393731264318646  0.39601092935911847  1.0000
  H   H10       1.0  0.6560136007603152  0.9401228657231718  0.604157255174629  1.0000
  H   H11       1.0  0.8063970854618839  0.05290233549382396  0.25334290386128305  1.0000
  H   H12       1.0  0.19348040310844358  0.5536937610973798  0.7473003922624006  1.0000
  O   O1        1.0  0.3392785543545934  0.036968573577110975  0.5281057039978189  1.0000
  O   O2        1.0  0.6606433387974149  0.5369848521324395  0.4716205403193817  1.0000
  O   O3        1.0  0.45339404218789914  0.9849268049910339  0.9926653960977185  1.0000
  O   O4        1.0  0.5468612198078703  0.4858959251692027  0.00732680257550005  1.0000
  O   O5        1.0  0.6259157704453503  0.0064190972918602325  0.328648457558651  1.0000
  O   O6        1.0  0.37401301415035004  0.506481132767749  0.6714975022697695  1.0000
  O   O7        1.0  0.3032885710772054  0.4163407308845795  0.23268014449256674  1.0000
  O   O8        1.0  0.6968797533472832  0.9170212337064662  0.7674358290315065  1.0000
  O   O9        1.0  0.9304454116320444  0.057088763689335104  0.20487630600158369  1.0000
  O   O10       1.0  0.06955701986764642  0.5579164910351403  0.795876854707619  1.0000
  O   O11       1.0  0.9606320728584723  0.405828838010247  0.3244316166921605  1.0000
  O   O12       1.0  0.039576220057195306  0.9061165591230151  0.6755271570930015  1.0000
