data_C4H6O6
_audit_creation_method 'chmpy python library version 1.0a1'
_cell_length_a 8.060345
_cell_length_b 5.453079
_cell_length_c 6.151732
_cell_angle_alpha 90.0
_cell_angle_beta 106.482525
_cell_angle_gamma 90.0
loop_
_symmetry_equiv_pos_site_id
_symmetry_equiv_pos_as_xyz
                   1 +x,+y,+z
                   2 -x,1/2+y,-z
loop_
_atom_site_label
_atom_site_type_symbol
_atom_site_fract_x
_atom_site_fract_y
_atom_site_fract_z
_atom_site_occupancy
C C       0.292204000000       0.015900000000       0.267311000000       1.000000000000
C C       0.444081000000       0.994529000000       0.164771000000       1.000000000000
C C       0.186645000000       0.252348000000       0.174873000000       1.000000000000
C C       0.017094000000       0.265800000000       0.239947000000       1.000000000000
H H       0.207155000000       0.852086000000       0.211038000000       1.000000000000
H H       0.152775000000       0.246572000000      -0.014522000000       1.000000000000
H H       0.246753000000       1.001766000000       0.579652000000       1.000000000000
H H       0.498894000000       0.971956000000       0.872845000000       1.000000000000
H H       0.334334000000       0.479054000000       0.407073000000       1.000000000000
H H       0.821795000000       0.057684000000       0.263131000000       1.000000000000
O O       0.347729000000       0.008990000000       0.510013000000       1.000000000000
O O       0.394842000000       0.971970000000       0.934357000000       1.000000000000
O O       0.596448000000       0.005830000000       0.279943000000       1.000000000000
O O       0.291138000000       0.466741000000       0.236216000000       1.000000000000
O O       0.938534000000       0.042944000000       0.234758000000       1.000000000000
O O       0.956190000000       0.461481000000       0.283464000000       1.000000000000
#END