data_cif

_audit_creation_method             'generated by GULP'

_symmetry_space_group_name_H-M     'I -4 3 M        '
_symmetry_Int_Tables_number        217
_symmetry_cell_setting             Cubic       

_cell_length_a                       6.709274
_cell_length_b                       6.709274
_cell_length_c                       6.709274
_cell_angle_alpha                   90.000000
_cell_angle_beta                    90.000000
_cell_angle_gamma                   90.000000

loop_
_atom_site_label
_atom_site_fract_x
_atom_site_fract_y
_atom_site_fract_z
_atom_site_occupancy
  C1          0.25321      0.00000      0.00000  1.0000
  N3          0.12547      0.12547      0.12547  1.0000
  H2          0.34752      0.90549      0.09451  1.0000
