data_image0
_chemical_formula_structural       C12N8H24
_chemical_formula_sum              "C12 N8 H24"
_cell_length_a       7.028
_cell_length_b       7.028
_cell_length_c       7.028
_cell_angle_alpha    90.0
_cell_angle_beta     90.0
_cell_angle_gamma    90.0

_space_group_name_H-M_alt    "P 1"
_space_group_IT_number       1

loop_
  _space_group_symop_operation_xyz
  'x, y, z'

loop_
  _atom_site_type_symbol
  _atom_site_label
  _atom_site_symmetry_multiplicity
  _atom_site_fract_x
  _atom_site_fract_y
  _atom_site_fract_z
  _atom_site_occupancy
  C   C1        1.0  0.24050893928203984  0.9999999616838594  8.728030377105904e-09  1.0000
  C   C2        1.0  0.7405089103167105  0.4999999993730013  0.49999999493853253  1.0000
  C   C3        1.0  1.508339017463029e-08  0.7594910752051702  1.4898029815430484e-08  1.0000
  C   C4        1.0  1.2735866873224987e-09  1.8470017521997816e-08  0.2405089260267822  1.0000
  C   C5        1.0  0.7594910750125108  9.234413019241586e-10  7.642164394507507e-09  1.0000
  C   C6        1.0  1.6373676224392042e-08  3.0157719741434686e-09  0.7594910866896761  1.0000
  C   C7        1.0  1.656859914555274e-08  0.2405089142999234  1.9290153614091867e-08  1.0000
  C   C8        1.0  0.4999999947258006  0.25949108508722235  0.5000000052301172  1.0000
  C   C9        1.0  0.49999999146940466  0.49999998779818083  0.7405088711231247  1.0000
  C   C10       1.0  0.25949106701535035  0.5000000027647619  0.5000000026881698  1.0000
  C   C11       1.0  0.4999999907202021  0.5000000078140663  0.25949108421936534  1.0000
  C   C12       1.0  0.500000007163695  0.7405089110841452  0.5000000016869527  1.0000
  N   N1        1.0  0.12377268544895706  0.12377269000678338  0.12377268240833562  1.0000
  N   N2        1.0  0.6237726905347769  0.623772668123523  0.6237726651869473  1.0000
  N   N3        1.0  0.12377267921966893  0.8762273366071953  0.8762273182972086  1.0000
  N   N4        1.0  0.8762273032726874  0.8762273341753193  0.12377268058054633  1.0000
  N   N5        1.0  0.8762272971795388  0.1237726703457545  0.8762272865855043  1.0000
  N   N6        1.0  0.6237726927347499  0.3762273495078367  0.3762273350641084  1.0000
  N   N7        1.0  0.37622734603912644  0.37622733275336034  0.6237726776030771  1.0000
  N   N8        1.0  0.376227338918461  0.6237726833840883  0.3762273319592995  1.0000
  H   H1        1.0  0.3304078396690985  0.9093193453969616  0.09057794627612059  1.0000
  H   H2        1.0  0.8304078299677353  0.409319342729818  0.590577945496036  1.0000
  H   H3        1.0  0.9094220315678222  0.6695921724879521  0.9093193237802861  1.0000
  H   H4        1.0  0.3304078373350566  0.0906806566943067  0.9094220464269572  1.0000
  H   H5        1.0  0.9093193336032948  0.09057794569118661  0.3304078307888429  1.0000
  H   H6        1.0  0.6695921462952035  0.09068067776901233  0.0905779758181339  1.0000
  H   H7        1.0  0.09057797850779495  0.669592169841514  0.09068067563115625  1.0000
  H   H8        1.0  0.09068068191971425  0.09057797241154049  0.6695921536655012  1.0000
  H   H9        1.0  0.09057796412152475  0.33040781601589514  0.9093193260004471  1.0000
  H   H10       1.0  0.6695921475780465  0.9093193349900542  0.9094220230570328  1.0000
  H   H11       1.0  0.09068067745014566  0.9094220419648944  0.33040784107164595  1.0000
  H   H12       1.0  0.9094220146337245  0.3304078299685118  0.09068066990061494  1.0000
  H   H13       1.0  0.9093193185893853  0.9094220386421588  0.6695921604619941  1.0000
  H   H14       1.0  0.4094220309443241  0.1695921771042718  0.4093193399513816  1.0000
  H   H15       1.0  0.8304078289276657  0.5906806607976445  0.409422047888257  1.0000
  H   H16       1.0  0.4093193268918245  0.5905779481748267  0.8304078361145892  1.0000
  H   H17       1.0  0.16959218446253427  0.5906806376746346  0.5905779277293133  1.0000
  H   H18       1.0  0.5905779450428416  0.16959219672427764  0.5906806606343288  1.0000
  H   H19       1.0  0.5906806587866104  0.5905779527261824  0.16959218520780747  1.0000
  H   H20       1.0  0.5905779495685742  0.8304078077628907  0.4093193340984182  1.0000
  H   H21       1.0  0.1695921644136631  0.4093193501225036  0.4094220505150247  1.0000
  H   H22       1.0  0.5906806730584819  0.4094220434727819  0.8304078560920259  1.0000
  H   H23       1.0  0.409422039643276  0.8304078091073329  0.5906806610981349  1.0000
  H   H24       1.0  0.4093193388871123  0.40942203656719617  0.1695921748095706  1.0000
