data_HXMTAM08.b3lyp.6-311G**.dma4.-89.1552.1.427
_audit_creation_method 'generated by cspy2.0'
_cell_length_a 6.909
_cell_length_b 6.8904
_cell_length_c 6.8567
_cell_angle_alpha 91.0193
_cell_angle_beta 90.6836
_cell_angle_gamma 91.2694
loop_
_symmetry_equiv_pos_site_id
_symmetry_equiv_pos_as_xyz
1 +x,+y,+z
loop_
_atom_site_label
_atom_site_type_symbol
_atom_site_fract_x
_atom_site_fract_y
_atom_site_fract_z
_atom_site_occupancy
C1 C       0.241859840000       0.003268130000       0.992826590000       1.000000000000
C2 C       0.002090090000       0.242722430000       1.002821580000       1.000000000000
C3 C      -0.010079270000      -0.001672850000       0.756219870000       1.000000000000
C4 C      -0.002090090000      -0.242722430000       0.997178420000       1.000000000000
C5 C       0.010079270000       0.001672850000       1.243780130000       1.000000000000
C6 C      -0.241859840000      -0.003268130000       1.007173410000       1.000000000000
C7 C       0.224923290000       0.495926300000       0.515490330000       1.000000000000
C8 C       0.706936130000       0.522672340000       0.478795640000       1.000000000000
C9 C       0.471812920000       0.267937760000       0.469458760000       1.000000000000
C10 C       0.487916880000       0.487086350000       0.738773150000       1.000000000000
C11 C       0.443942540000       0.531512290000       0.255512820000       1.000000000000
C12 C       0.460046500000       0.750660860000       0.524827220000       1.000000000000
N1 N      -0.128337750000       0.122139100000       0.879913650000       1.000000000000
N2 N       0.117983090000      -0.123857650000       0.869645560000       1.000000000000
N3 N      -0.120130280000      -0.125496530000       1.127455760000       1.000000000000
N4 N       0.130484940000       0.127215090000       1.122985030000       1.000000000000
N5 N       0.356449990000       0.367042110000       0.616463030000       1.000000000000
N6 N       0.597997330000       0.628736650000       0.626055020000       1.000000000000
N7 N       0.327818140000       0.637818120000       0.396671580000       1.000000000000
N8 N       0.581453380000       0.403600400000       0.349382320000       1.000000000000
H1 H      -0.323701570000       0.087405020000       1.102406430000       1.000000000000
H2 H      -0.084263530000       0.328845950000       1.098135090000       1.000000000000
H3 H      -0.105354010000      -0.094710870000       0.670754300000       1.000000000000
H4 H      -0.076422110000       0.092254630000       1.334637080000       1.000000000000
H5 H      -0.097512600000      -0.331302210000       0.907256280000       1.000000000000
H6 H       0.077992970000       0.090169790000       0.667483570000       1.000000000000
H7 H       0.331276900000      -0.086147750000       1.080812940000       1.000000000000
H8 H       0.103783150000      -0.087713550000       1.327125070000       1.000000000000
H9 H       0.091838870000      -0.327588680000       1.085084280000       1.000000000000
H10 H      -0.332847760000      -0.096276660000       0.917066420000       1.000000000000
H11 H       0.089937250000       0.330044930000       0.909524360000       1.000000000000
H12 H       0.325272420000       0.095019400000       0.899714210000       1.000000000000
H13 H       0.375639620000       0.823524870000       0.632415060000       1.000000000000
H14 H       0.347730170000       0.443722590000       0.165671390000       1.000000000000
H15 H       0.402994540000       0.564825190000       0.842404030000       1.000000000000
H16 H       0.524443200000       0.635175070000       0.172688760000       1.000000000000
H17 H       0.540249310000       0.850270460000       0.437022130000       1.000000000000
H18 H       0.782572670000       0.626498620000       0.391841910000       1.000000000000
H19 H       0.588550930000       0.393474420000       0.807807780000       1.000000000000
H20 H       0.572744830000       0.178379030000       0.543474410000       1.000000000000
H21 H       0.132761720000       0.408794760000       0.420840560000       1.000000000000
H22 H       0.144865060000       0.573501650000       0.623250870000       1.000000000000
H23 H       0.375085080000       0.185022930000       0.375660340000       1.000000000000
H24 H       0.803519390000       0.428402250000       0.552638600000       1.000000000000
#END