# CIF file generated from CASTEP cell file
# https://gist.github.com/blake-armstrong/93facdde07a6e0a1ddb51857dd48e3f1
# Structure converted from CASTEP

data_structure

_cell_length_a    6.987749248717730
_cell_length_b    6.987749248717730
_cell_length_c    6.987749248717730
_cell_angle_alpha 90.000000000000000
_cell_angle_beta  90.000000000000000
_cell_angle_gamma 90.000000000000000

_symmetry_space_group_name_H-M 'P 1'
_symmetry_Int_Tables_number 1

loop_
_atom_site_label
_atom_site_type_symbol
_atom_site_fract_x
_atom_site_fract_y
_atom_site_fract_z
H1       H     0.332165912742373    0.908852260350462    0.091147739649538
H2       H     0.091147739649538    0.332165912742374    0.908852260350462
H3       H     0.908852260350462    0.091147739649538    0.332165912742374
H4       H     0.908852260350462    0.667834087257627    0.908852260350462
H5       H     0.908852260350462    0.908852260350462    0.667834087257627
H6       H     0.667834087257627    0.908852260350462    0.908852260350462
H7       H     0.667834087257627    0.091147739649538    0.091147739649538
H8       H     0.908852260350462    0.332165912742374    0.091147739649538
H9       H     0.091147739649538    0.908852260350462    0.332165912742374
H10      H     0.332165912742373    0.091147739649538    0.908852260350462
H11      H     0.091147739649538    0.667834087257627    0.091147739649538
H12      H     0.091147739649538    0.091147739649538    0.667834087257627
H13      H     0.832165912742373    0.408852260350462    0.591147739649538
H14      H     0.591147739649538    0.832165912742373    0.408852260350462
H15      H     0.408852260350462    0.591147739649538    0.832165912742373
H16      H     0.408852260350462    0.167834087257626    0.408852260350462
H17      H     0.408852260350462    0.408852260350462    0.167834087257626
H18      H     0.167834087257626    0.408852260350462    0.408852260350462
H19      H     0.167834087257626    0.591147739649538    0.591147739649538
H20      H     0.408852260350462    0.832165912742373    0.591147739649538
H21      H     0.591147739649538    0.408852260350462    0.832165912742373
H22      H     0.832165912742373    0.591147739649538    0.408852260350462
H23      H     0.591147739649538    0.167834087257626    0.591147739649538
H24      H     0.591147739649538    0.591147739649538    0.167834087257626
C1       C     0.242186271947721    0.000000000000000    0.000000000000000
C2       C     0.000000000000000    0.242186271947721   -0.000000000000000
C3       C    -0.000000000000000   -0.000000000000000    0.242186271947721
C4       C     0.000000000000000    0.757813728052278   -0.000000000000000
C5       C     0.000000000000000    0.000000000000000    0.757813728052278
C6       C     0.757813728052278   -0.000000000000000   -0.000000000000000
C7       C     0.742186271947722    0.500000000000000    0.500000000000000
C8       C     0.500000000000000    0.742186271947722    0.500000000000000
C9       C     0.500000000000000    0.500000000000000    0.742186271947722
C10      C     0.500000000000000    0.257813728052279    0.500000000000000
C11      C     0.500000000000000    0.500000000000000    0.257813728052279
C12      C     0.257813728052279    0.500000000000000    0.500000000000000
N1       N     0.124571056207729    0.124571056207729    0.124571056207729
N2       N     0.124571056207729    0.875428943792271    0.875428943792271
N3       N     0.875428943792271    0.124571056207729    0.875428943792271
N4       N     0.875428943792271    0.875428943792271    0.124571056207729
N5       N     0.624571056207729    0.624571056207729    0.624571056207729
N6       N     0.624571056207729    0.375428943792271    0.375428943792271
N7       N     0.375428943792271    0.624571056207729    0.375428943792271
N8       N     0.375428943792271    0.375428943792271    0.624571056207729
