data_image0
_chemical_formula_structural       C12N8H24
_chemical_formula_sum              "C12 N8 H24"
_cell_length_a       6.944643099228158
_cell_length_b       6.945222913646926
_cell_length_c       6.9464248206656425
_cell_angle_alpha    89.97227874304563
_cell_angle_beta     90.00612637489246
_cell_angle_gamma    89.94472848997135

_space_group_name_H-M_alt    "P 1"
_space_group_IT_number       1

loop_
  _space_group_symop_operation_xyz
  'x, y, z'

loop_
  _atom_site_type_symbol
  _atom_site_label
  _atom_site_symmetry_multiplicity
  _atom_site_fract_x
  _atom_site_fract_y
  _atom_site_fract_z
  _atom_site_occupancy
  C   C1        1.0  0.2416291756022168  0.9996034558555028  0.9993141945080004  1.0000
  C   C2        1.0  0.7416291272722562  0.49960428237314825  0.4993143037294732  1.0000
  C   C3        1.0  0.9997126226928588  0.7583913665297243  0.00017775486933248942  1.0000
  C   C4        1.0  0.0007824817740995449  0.9999884706523816  0.24158924809668367  1.0000
  C   C5        1.0  0.7582466362657045  0.0004548880818822659  0.0007701102359322748  1.0000
  C   C6        1.0  0.9992262712619455  4.136246118445306e-06  0.7583752143654547  1.0000
  C   C7        1.0  0.00032508330569329424  0.24171802563326306  0.9997834642232254  1.0000
  C   C8        1.0  0.4997126961237455  0.2583915794039273  0.500178450613887  1.0000
  C   C9        1.0  0.5007834758053097  0.49998894389311177  0.741588913760967  1.0000
  C   C10       1.0  0.25824741951453256  0.5004544714234147  0.5007702441534873  1.0000
  C   C11       1.0  0.4992264625855316  0.5000041216699638  0.2583756498708306  1.0000
  C   C12       1.0  0.5003247051146134  0.7417176194119278  0.49978290927360103  1.0000
  N   N1        1.0  0.12452930279351648  0.12387088574004046  0.12358743395361284  1.0000
  N   N2        1.0  0.6245288379387178  0.6238711962458295  0.6235867891235566  1.0000
  N   N3        1.0  0.12343645692479267  0.8757917413574958  0.8757754197719244  1.0000
  N   N4        1.0  0.8762313942535314  0.8762539704625515  0.12443046744319383  1.0000
  N   N5        1.0  0.8757078586226231  0.12424975719158962  0.8763649974886295  1.0000
  N   N6        1.0  0.6234370230949691  0.37579121715522373  0.37577534977366667  1.0000
  N   N7        1.0  0.3762321365327606  0.37625412081990783  0.6244309129857223  1.0000
  N   N8        1.0  0.37570797352457963  0.6242495503064466  0.37636511915595683  1.0000
  H   H1        1.0  0.33287465782275666  0.9069099992980384  0.0914435800868234  1.0000
  H   H2        1.0  0.8328750688839457  0.4069105635040409  0.5914429622749527  1.0000
  H   H3        1.0  0.9069479101886361  0.6674628597340404  0.9081408211402243  1.0000
  H   H4        1.0  0.3325557971046414  0.09174477734521529  0.9065310823689996  1.0000
  H   H5        1.0  0.9086575967137236  0.09244910626791045  0.33291818579665367  1.0000
  H   H6        1.0  0.6675627076664913  0.09299421655584578  0.09349693638115494  1.0000
  H   H7        1.0  0.09239031475422792  0.6672418255659874  0.09244061519114596  1.0000
  H   H8        1.0  0.0915849249207803  0.09221395707842102  0.6670646231804226  1.0000
  H   H9        1.0  0.09261525956661429  0.3324027878938394  0.9068781111494648  1.0000
  H   H10       1.0  0.6667376340232667  0.9082163353433453  0.9087849954246384  1.0000
  H   H11       1.0  0.0934231783359074  0.9071779218437276  0.33221882241441864  1.0000
  H   H12       1.0  0.9083080942170124  0.33313708603521824  0.09228264386246124  1.0000
  H   H13       1.0  0.9065116944951969  0.9077259558117946  0.6676318220348941  1.0000
  H   H14       1.0  0.40694918923501555  0.1674625231575442  0.40814106714159354  1.0000
  H   H15       1.0  0.8325557484809365  0.5917450138346605  0.4065310611761532  1.0000
  H   H16       1.0  0.40865840785783836  0.5924481543147834  0.8329178716164903  1.0000
  H   H17       1.0  0.16756310167013946  0.5929928490312001  0.5934964757812033  1.0000
  H   H18       1.0  0.5923910198963682  0.1672423342671131  0.5924400757595171  1.0000
  H   H19       1.0  0.591584368625876  0.5922137012899368  0.16706458256054238  1.0000
  H   H20       1.0  0.5926144295217042  0.8324022344625508  0.4068785237617442  1.0000
  H   H21       1.0  0.16673823555235343  0.4082159550189238  0.4087854411060766  1.0000
  H   H22       1.0  0.5934234678793647  0.4071781033496016  0.832218447520207  1.0000
  H   H23       1.0  0.4083085272172417  0.8331366468816931  0.5922820682977527  1.0000
  H   H24       1.0  0.4065122237469128  0.4077260204976452  0.16763208243262154  1.0000
