data_CHN
_audit_creation_method 'chmpy python library version 1.0a1'
_cell_length_a 5.901776
_cell_length_b 5.901776
_cell_length_c 5.901776
_cell_angle_alpha 109.471221
_cell_angle_beta 109.471221
_cell_angle_gamma 109.471221
loop_
_symmetry_equiv_pos_site_id
_symmetry_equiv_pos_as_xyz
                   1 -x,-y,+z
                   2 -x,-z,+y
                   3 -x,+z,-y
                   4 -x,+y,-z
                   5 -y,-x,+z
                   6 -y,-z,+x
                   7 -y,+z,-x
                   8 -y,+x,-z
                   9 -z,-x,+y
                  10 -z,-y,+x
                  11 -z,+y,-x
                  12 -z,+x,-y
                  13 +z,-x,-y
                  14 +z,-y,-x
                  15 +z,+y,+x
                  16 +z,+x,+y
                  17 +y,-x,-z
                  18 +y,-z,-x
                  19 +y,+z,+x
                  20 +y,+x,+z
                  21 +x,-y,-z
                  22 +x,-z,-y
                  23 +x,+z,+y
                  24 +x,+y,+z
                  25 1/2-x,1/2-y,1/2+z
                  26 1/2-x,1/2-z,1/2+y
                  27 1/2-x,1/2+z,1/2-y
                  28 1/2-x,1/2+y,1/2-z
                  29 1/2-y,1/2-x,1/2+z
                  30 1/2-y,1/2-z,1/2+x
                  31 1/2-y,1/2+z,1/2-x
                  32 1/2-y,1/2+x,1/2-z
                  33 1/2-z,1/2-x,1/2+y
                  34 1/2-z,1/2-y,1/2+x
                  35 1/2-z,1/2+y,1/2-x
                  36 1/2-z,1/2+x,1/2-y
                  37 1/2+z,1/2-x,1/2-y
                  38 1/2+z,1/2-y,1/2-x
                  39 1/2+z,1/2+y,1/2+x
                  40 1/2+z,1/2+x,1/2+y
                  41 1/2+y,1/2-x,1/2-z
                  42 1/2+y,1/2-z,1/2-x
                  43 1/2+y,1/2+z,1/2+x
                  44 1/2+y,1/2+x,1/2+z
                  45 1/2+x,1/2-y,1/2-z
                  46 1/2+x,1/2-z,1/2-y
                  47 1/2+x,1/2+z,1/2+y
                  48 1/2+x,1/2+y,1/2+z
loop_
_atom_site_label
_atom_site_type_symbol
_atom_site_fract_x
_atom_site_fract_y
_atom_site_fract_z
_atom_site_occupancy
C C       0.255028000000       0.000000000000       0.000000000000       1.000000000000
N N       0.127189000000       0.127189000000       0.127189000000       1.000000000000
H H       0.349926000000       0.906927000000       0.093073000000       1.000000000000
#END