data_image0
_chemical_formula_structural       O48N48C24H48
_chemical_formula_sum              "O48 N48 C24 H48"
_cell_length_a       11.6103
_cell_length_b       10.7291
_cell_length_c       13.2013
_cell_angle_alpha    90.0
_cell_angle_beta     90.0
_cell_angle_gamma    90.0

_space_group_name_H-M_alt    "P 1"
_space_group_IT_number       1

loop_
  _space_group_symop_operation_xyz
  'x, y, z'

loop_
  _atom_site_type_symbol
  _atom_site_label
  _atom_site_symmetry_multiplicity
  _atom_site_fract_x
  _atom_site_fract_y
  _atom_site_fract_z
  _atom_site_occupancy
  O   O1        1.0  0.5766264574174108  0.42455204761704396  0.26423907116401496  1.0000
  O   O2        1.0  0.9233736637503545  0.5754477438963026  0.7642390682905272  1.0000
  O   O3        1.0  0.4233736179369342  0.9245523668630602  0.23576084851215612  1.0000
  O   O4        1.0  0.07662657064666845  0.07544765223116916  0.7357608250772077  1.0000
  O   O5        1.0  0.42404839882573986  0.5746742340520412  0.7355865931972114  1.0000
  O   O6        1.0  0.07595186583992496  0.4253257161925817  0.2355864777650823  1.0000
  O   O7        1.0  0.5759515666792631  0.0746741213778429  0.7644134054067915  1.0000
  O   O8        1.0  0.9240483934470832  0.9253257410916136  0.26441340529395974  1.0000
  O   O9        1.0  0.5962109721832256  0.2262349239518343  0.22371383811864398  1.0000
  O   O10       1.0  0.9037891124677353  0.7737650159368821  0.7237137775899082  1.0000
  O   O11       1.0  0.4037891652403278  0.7262347820164595  0.27628634417570685  1.0000
  O   O12       1.0  0.09621075170666728  0.2737651758718445  0.7762862851862274  1.0000
  O   O13       1.0  0.4045142174075085  0.7732474644797793  0.7752362344732286  1.0000
  O   O14       1.0  0.09548573958670441  0.22675246682023031  0.2752361722605948  1.0000
  O   O15       1.0  0.5954858102529887  0.2732476364942822  0.7247638396552194  1.0000
  O   O16       1.0  0.9045141614061625  0.7267522847684568  0.22476369572566568  1.0000
  O   O17       1.0  0.46398710036029256  0.12831979344969877  0.9763785000776238  1.0000
  O   O18       1.0  0.03601259605071989  0.8716803627633102  0.4763781758010538  1.0000
  O   O19       1.0  0.5360126410937804  0.6283197373450254  0.5236216041917586  1.0000
  O   O20       1.0  0.9639871314698135  0.3716801281614778  0.023621867797644063  1.0000
  O   O21       1.0  0.5367137418942792  0.8709439565742996  0.023730544848474772  1.0000
  O   O22       1.0  0.9632858813540834  0.12905635259629858  0.5237300626797408  1.0000
  O   O23       1.0  0.4632863994491488  0.37094396676752917  0.4762697468530884  1.0000
  O   O24       1.0  0.036713783054548775  0.6290560801049296  0.9762698007522781  1.0000
  O   O25       1.0  0.3526746319932055  0.25159402771998685  0.8859152412670245  1.0000
  O   O26       1.0  0.14732533213971494  0.7484058645713902  0.38591537528439346  1.0000
  O   O27       1.0  0.6473252897242493  0.7515942534722121  0.6140847713913997  1.0000
  O   O28       1.0  0.852674590262323  0.2484058065777624  0.11408519753498814  1.0000
  O   O29       1.0  0.6498841685779045  0.7496853330714736  0.11420922844672315  1.0000
  O   O30       1.0  0.8501155412436365  0.2503147500220117  0.6142094122083821  1.0000
  O   O31       1.0  0.3501155326608841  0.24968504812750913  0.38579117541218494  1.0000
  O   O32       1.0  0.14988441813889772  0.7503148003847373  0.8857909706876783  1.0000
  O   O33       1.0  0.3183512173370078  0.5331432175325325  0.9311808971808642  1.0000
  O   O34       1.0  0.18164878115180907  0.46685654115843317  0.4311806402623596  1.0000
  O   O35       1.0  0.6816489398569229  0.03314298014331389  0.5688191005977546  1.0000
  O   O36       1.0  0.8183509022736036  0.9668572088096654  0.0688192528594225  1.0000
  O   O37       1.0  0.6857932619595692  0.46826876873887263  0.07019197179647657  1.0000
  O   O38       1.0  0.8142066508446395  0.5317308398617512  0.5701918349222794  1.0000
  O   O39       1.0  0.3142066004163511  0.9682689837669761  0.42980810581229795  1.0000
  O   O40       1.0  0.18579328797602213  0.03173111905954803  0.9298080716395442  1.0000
  O   O41       1.0  0.4342895309341263  0.6047066795085154  0.049545661052494305  1.0000
  O   O42       1.0  0.0657103267917199  0.3952930873549182  0.5495455303248641  1.0000
  O   O43       1.0  0.5657103622418715  0.10470669195233999  0.4504541702104738  1.0000
  O   O44       1.0  0.9342894688168809  0.8952935219383821  0.9504542169925047  1.0000
  O   O45       1.0  0.5691118115463772  0.3937921010737421  0.953605156437394  1.0000
  O   O46       1.0  0.9308880770740076  0.6062075425095713  0.45360471442472045  1.0000
  O   O47       1.0  0.4308882380660577  0.8937921156803884  0.5463949567680103  1.0000
  O   O48       1.0  0.0691118282583818  0.10620782242735331  0.04639515763513315  1.0000
  N   N1        1.0  0.435191503555203  0.32783203115142245  0.1816391444972985  1.0000
  N   N2        1.0  0.06480849644642005  0.6721678893321096  0.681639135857545  1.0000
  N   N3        1.0  0.5648082945886798  0.8278320800772717  0.3183609597297063  1.0000
  N   N4        1.0  0.9351914454335691  0.17216797072705783  0.8183604769104108  1.0000
  N   N5        1.0  0.564481521223799  0.6712762146959742  0.8196725823505784  1.0000
  N   N6        1.0  0.9355187871438785  0.32872378952733744  0.3196729776946942  1.0000
  N   N7        1.0  0.4355187007940623  0.1712762353740176  0.6803274317832052  1.0000
  N   N8        1.0  0.06448116569988298  0.8287238262496717  0.18032696566064704  1.0000
  N   N9        1.0  0.3209492596088387  0.23409872984027802  0.054115067623971835  1.0000
  N   N10       1.0  0.17905051934559035  0.765901144159249  0.5541149921079573  1.0000
  N   N11       1.0  0.679050413923626  0.7340989283809768  0.4458850974880892  1.0000
  N   N12       1.0  0.8209495541543167  0.2659008274695802  0.9458850399045042  1.0000
  N   N13       1.0  0.6801249052921732  0.7660971094724526  0.9457519116149814  1.0000
  N   N14       1.0  0.8198750724555692  0.23390302171441213  0.4457519893144966  1.0000
  N   N15       1.0  0.3198753180015524  0.2660969290644129  0.554247962137909  1.0000
  N   N16       1.0  0.18012462410297528  0.7339030943542799  0.054248031770853807  1.0000
  N   N17       1.0  0.305665367043986  0.45463574522986794  0.08888046372537738  1.0000
  N   N18       1.0  0.1943341713630612  0.5453644528383499  0.5888802639801319  1.0000
  N   N19       1.0  0.6943347187845091  0.9546360296980585  0.4111195567599896  1.0000
  N   N20       1.0  0.8056649657751782  0.045364000079328184  0.9111195243433414  1.0000
  N   N21       1.0  0.6952173982031391  0.5454847420233839  0.9119821890103664  1.0000
  N   N22       1.0  0.8047820264975266  0.454515765478278  0.41198195799542264  1.0000
  N   N23       1.0  0.304782643403448  0.04548468315796827  0.5880177189374045  1.0000
  N   N24       1.0  0.19521730688768704  0.9545152206107054  0.08801773263277866  1.0000
  N   N25       1.0  0.5415053146202586  0.3260570462078078  0.22567983187628496  1.0000
  N   N26       1.0  0.9584946364561123  0.6739434570718735  0.7256797862931963  1.0000
  N   N27       1.0  0.4584944835294332  0.8260567763173043  0.27432019871668095  1.0000
  N   N28       1.0  0.04150555893197825  0.17394318995554042  0.7743201114537679  1.0000
  N   N29       1.0  0.45891004152565734  0.673213795182602  0.7742099323884668  1.0000
  N   N30       1.0  0.04109022834262409  0.32678636238565073  0.2742099027535217  1.0000
  N   N31       1.0  0.5410902059857544  0.17321371401200542  0.7257901797084498  1.0000
  N   N32       1.0  0.9589098407173733  0.8267866191475548  0.22579005477226996  1.0000
  N   N33       1.0  0.3853607947133766  0.20449366081267994  0.9662295409742147  1.0000
  N   N34       1.0  0.11463926264007634  0.7955063128839767  0.4662293249753201  1.0000
  N   N35       1.0  0.6146391711000154  0.7044934432805965  0.5337706823635708  1.0000
  N   N36       1.0  0.8853614111525515  0.2955069857402636  0.03377049253789441  1.0000
  N   N37       1.0  0.6161495194114217  0.7957475646232794  0.0338336875531865  1.0000
  N   N38       1.0  0.8838508099473069  0.20425175354257374  0.53383318585684  1.0000
  N   N39       1.0  0.383850309890425  0.2957478973850274  0.4661664006750202  1.0000
  N   N40       1.0  0.11614940877938096  0.70425218279231  0.9661665089629441  1.0000
  N   N41       1.0  0.35778670160418363  0.5342998633437561  0.01798072583468124  1.0000
  N   N42       1.0  0.14221323743670974  0.4657000034753112  0.517980453476666  1.0000
  N   N43       1.0  0.6422133883379282  0.03430006868686758  0.4820192744543854  1.0000
  N   N44       1.0  0.8577868993009047  0.9656997405775268  0.9820189161338234  1.0000
  N   N45       1.0  0.645082416096359  0.4657232549841102  0.9838894685932832  1.0000
  N   N46       1.0  0.8549174271246722  0.5342767196996862  0.48388921511769095  1.0000
  N   N47       1.0  0.3549177419991442  0.9657230689167937  0.516110618437778  1.0000
  N   N48       1.0  0.14508232611045202  0.034276779655508786  0.016110507549552695  1.0000
  C   C1        1.0  0.36258648643706304  0.43888874875541783  0.18650173168693293  1.0000
  C   C2        1.0  0.13741357812679494  0.5611112529783062  0.6865020331871128  1.0000
  C   C3        1.0  0.6374134476372503  0.9388886429900996  0.31349847989671276  1.0000
  C   C4        1.0  0.8625863482274182  0.06111167898803224  0.8134985123376738  1.0000
  C   C5        1.0  0.6370106638290731  0.5601112050921597  0.8148834339166874  1.0000
  C   C6        1.0  0.8629894693415613  0.4398885912439172  0.3148838383854162  1.0000
  C   C7        1.0  0.36298941974740917  0.060111438399599114  0.6851163472937581  1.0000
  C   C8        1.0  0.13701046777157536  0.9398886173784011  0.18511620941468765  1.0000
  C   C9        1.0  0.3772720744484234  0.2129023403127415  0.15110717353932862  1.0000
  C   C10       1.0  0.12272825345246687  0.7870975836860951  0.6511073226584229  1.0000
  C   C11       1.0  0.6227279009185248  0.7129023311468399  0.348892866166098  1.0000
  C   C12       1.0  0.8772722272641703  0.2870973053880546  0.8488928841310547  1.0000
  C   C13       1.0  0.6228749179223263  0.7865340676616888  0.8490712069276369  1.0000
  C   C14       1.0  0.8771254048203971  0.21346594601177843  0.3490715640287693  1.0000
  C   C15       1.0  0.37712504963763627  0.28653376715445766  0.6509286384319548  1.0000
  C   C16       1.0  0.12287471520030319  0.7134662477474603  0.1509286029238242  1.0000
  C   C17       1.0  0.2464002111387749  0.34390712926266065  0.05028262219830063  1.0000
  C   C18       1.0  0.25359991062453224  0.6560927966585673  0.5502823424160113  1.0000
  C   C19       1.0  0.7535998647974541  0.8439072076486286  0.4497173580583841  1.0000
  C   C20       1.0  0.7464002995027459  0.15609270550997495  0.9497173041990079  1.0000
  C   C21       1.0  0.7548521366153675  0.6564952544481586  0.9495165632608721  1.0000
  C   C22       1.0  0.7451479550820075  0.34350477913501654  0.44951611355339216  1.0000
  C   C23       1.0  0.24514765992142296  0.1564952907600256  0.5504834066021392  1.0000
  C   C24       1.0  0.25485219279821786  0.8435045210108534  0.05048381279412838  1.0000
  H   H1        1.0  0.41433270270502454  0.5206710338648762  0.20488523289636243  1.0000
  H   H2        1.0  0.08566722653641225  0.4793289395799741  0.7048853756370669  1.0000
  H   H3        1.0  0.5856675352283186  0.0206708605947596  0.2951146978612052  1.0000
  H   H4        1.0  0.9143324669770363  0.9793298980237093  0.7951150146959405  1.0000
  H   H5        1.0  0.5848865140589673  0.4781900058643792  0.7977652928838788  1.0000
  H   H6        1.0  0.9151134845431441  0.5218094829157577  0.2977654914144718  1.0000
  H   H7        1.0  0.41511347471229476  0.9781904238960237  0.702234443980694  1.0000
  H   H8        1.0  0.0848868896922624  0.02180953211837764  0.20223494561875935  1.0000
  H   H9        1.0  0.29438582393433105  0.42533947022080504  0.24340219761900136  1.0000
  H   H10       1.0  0.20561414754020949  0.574660901639791  0.7434029238289637  1.0000
  H   H11       1.0  0.7056141428279629  0.9253398089969219  0.2565978844740567  1.0000
  H   H12       1.0  0.7943858332006533  0.0746605180990594  0.7565977319358462  1.0000
  H   H13       1.0  0.7044876315985069  0.5727755455181429  0.7571668086614501  1.0000
  H   H14       1.0  0.7955118615391265  0.4272253083674821  0.2571679261310665  1.0000
  H   H15       1.0  0.2955122659790358  0.07277543948954537  0.7428327704073223  1.0000
  H   H16       1.0  0.2044875550605568  0.9272253477385975  0.24283273528196023  1.0000
  H   H17       1.0  0.43882927952529277  0.13640639608136376  0.14601674409204543  1.0000
  H   H18       1.0  0.061170767099794146  0.8635933022216038  0.6460166584928055  1.0000
  H   H19       1.0  0.5611708338830634  0.6364062701129017  0.3539830551686199  1.0000
  H   H20       1.0  0.9388288692155292  0.36359326378640155  0.8539831186484228  1.0000
  H   H21       1.0  0.5614314861497909  0.8631398357329996  0.8542257732349178  1.0000
  H   H22       1.0  0.938568361773738  0.13685996046515359  0.35422546466543503  1.0000
  H   H23       1.0  0.43856838833015027  0.36313916774166105  0.6457741494873128  1.0000
  H   H24       1.0  0.06143185646004557  0.6368603596094675  0.14577444765827727  1.0000
  H   H25       1.0  0.30945155150934367  0.1910005013262505  0.2065261717912488  1.0000
  H   H26       1.0  0.19054843415859263  0.808999659474272  0.7065268051406794  1.0000
  H   H27       1.0  0.690548227617378  0.691000204153163  0.293473749317506  1.0000
  H   H28       1.0  0.8094521645995231  0.3089994801710209  0.7934734387906242  1.0000
  H   H29       1.0  0.6901529223841633  0.807868234633869  0.7929780056240382  1.0000
  H   H30       1.0  0.8098471726624707  0.19213161553289138  0.2929788688925227  1.0000
  H   H31       1.0  0.3098469610046691  0.30786821969783174  0.7070216238665679  1.0000
  H   H32       1.0  0.19015292903712924  0.692131389393921  0.20702129889089116  1.0000
  H   H33       1.0  0.21607193432104585  0.35980746513277373  0.9731945625567309  1.0000
  H   H34       1.0  0.2839285918863425  0.6401924102809222  0.47319442988851085  1.0000
  H   H35       1.0  0.7839281056057656  0.8598075125742336  0.5268053755032632  1.0000
  H   H36       1.0  0.7160717553235908  0.14019284285695033  0.026805151612519035  1.0000
  H   H37       1.0  0.7860504604419413  0.6411470084396618  0.026416683096488956  1.0000
  H   H38       1.0  0.7139502118077791  0.3588528258562702  0.5264162583755707  1.0000
  H   H39       1.0  0.213949739957295  0.1411468631600719  0.47358325528243844  1.0000
  H   H40       1.0  0.28605012967780635  0.8588529623818167  0.9735837140908474  1.0000
  H   H41       1.0  0.17302060942982828  0.3263462069063215  0.10049144736210462  1.0000
  H   H42       1.0  0.3269794575279225  0.6736541920823355  0.6004913177272202  1.0000
  H   H43       1.0  0.8269797169082134  0.8263463954639064  0.39950840142981114  1.0000
  H   H44       1.0  0.6730205726210982  0.17365299354720642  0.8995086106970323  1.0000
  H   H45       1.0  0.8276368275400979  0.6738562720684319  0.8986181160178526  1.0000
  H   H46       1.0  0.6723628624064178  0.32614404159854526  0.39861790609381886  1.0000
  H   H47       1.0  0.17236290489161657  0.17385648545202806  0.6013821503086592  1.0000
  H   H48       1.0  0.3276373949034628  0.8261436334716773  0.10138205910073186  1.0000
