data_image0
_chemical_formula_structural       O48N48C24H48
_chemical_formula_sum              "O48 N48 C24 H48"
_cell_length_a       11.511211735313228
_cell_length_b       11.08650242139641
_cell_length_c       13.557399978464899
_cell_angle_alpha    89.99701581253848
_cell_angle_beta     90.00912707217425
_cell_angle_gamma    89.9235813774776

_space_group_name_H-M_alt    "P 1"
_space_group_IT_number       1

loop_
  _space_group_symop_operation_xyz
  'x, y, z'

loop_
  _atom_site_type_symbol
  _atom_site_label
  _atom_site_symmetry_multiplicity
  _atom_site_fract_x
  _atom_site_fract_y
  _atom_site_fract_z
  _atom_site_occupancy
  O   O1        1.0  0.580014504574474  0.44064052513138263  0.26643972104311753  1.0000
  O   O2        1.0  0.9187230208327614  0.5610460075588874  0.7623286552481777  1.0000
  O   O3        1.0  0.41856050268352063  0.9380211825119542  0.23721526722743141  1.0000
  O   O4        1.0  0.0776284967788347  0.05758303541462539  0.7336139469168771  1.0000
  O   O5        1.0  0.41891695444035354  0.5603708883897179  0.7369156983675184  1.0000
  O   O6        1.0  0.08101718780284346  0.43633665249952164  0.23392567518470672  1.0000
  O   O7        1.0  0.5782103132419196  0.058257958525160226  0.7671291836469327  1.0000
  O   O8        1.0  0.9184217052385949  0.9395156229540437  0.26337719041817637  1.0000
  O   O9        1.0  0.6091367959816768  0.247349271688395  0.24406098163343504  1.0000
  O   O10       1.0  0.8865260516992359  0.7536377466562576  0.7387516314384925  1.0000
  O   O11       1.0  0.3870219622114363  0.7454233492505637  0.26099190782648396  1.0000
  O   O12       1.0  0.10958209571788897  0.2502243734170034  0.7567374304570565  1.0000
  O   O13       1.0  0.385523389347163  0.7527648114455894  0.7604730051256176  1.0000
  O   O14       1.0  0.11005643956036673  0.24325122846621605  0.2578351411564364  1.0000
  O   O15       1.0  0.6097515578388032  0.25075757468289556  0.7430380914504101  1.0000
  O   O16       1.0  0.8859919854067474  0.7471871475452924  0.23912329185291287  1.0000
  O   O17       1.0  0.5139311732133027  0.13917491957682052  0.014356851912881385  1.0000
  O   O18       1.0  0.9886404844844244  0.8622091842873192  0.5006710122074852  1.0000
  O   O19       1.0  0.4890734731293432  0.6367440747495663  0.4987458892854257  1.0000
  O   O20       1.0  0.015179061074910738  0.36073911688395804  0.9862987618612626  1.0000
  O   O21       1.0  0.4882795361133774  0.8634639832894744  0.9994285891155346  1.0000
  O   O22       1.0  0.013535715702026385  0.13840246793187877  0.48815411865517794  1.0000
  O   O23       1.0  0.5143318079780277  0.3602043640350335  0.51308730429245  1.0000
  O   O24       1.0  0.9897379967987382  0.6378584238977226  0.00029297011725226696  1.0000
  O   O25       1.0  0.3920827630862661  0.2204577921024418  0.9099836402224377  1.0000
  O   O26       1.0  0.11779007637496972  0.7823449698556272  0.40209959989289523  1.0000
  O   O27       1.0  0.6171082378012444  0.7177478195364719  0.5975353634704372  1.0000
  O   O28       1.0  0.8925409229104739  0.28129333482369095  0.09070221275683021  1.0000
  O   O29       1.0  0.6180968808551379  0.7837010754248845  0.09740942715677582  1.0000
  O   O30       1.0  0.8907514585396346  0.22062952296732494  0.5911584532114397  1.0000
  O   O31       1.0  0.39110188360922904  0.2805156766730469  0.4091945542306236  1.0000
  O   O32       1.0  0.11896027645082576  0.7186348235543928  0.9024705565423148  1.0000
  O   O33       1.0  0.3253121714705049  0.5043069733645227  0.9359717238239671  1.0000
  O   O34       1.0  0.19062120573745397  0.5021650806584685  0.43016807738666635  1.0000
  O   O35       1.0  0.6892020017830601  0.9974786845782438  0.569779611656689  1.0000
  O   O36       1.0  0.826199142154112  0.9975507995530913  0.0639876375107847  1.0000
  O   O37       1.0  0.6917169584083036  0.5037603094352247  0.06946795470638087  1.0000
  O   O38       1.0  0.8240152177872677  0.5038781099633349  0.5625772280409322  1.0000
  O   O39       1.0  0.3250318460011873  0.9967165110896091  0.4361788997916731  1.0000
  O   O40       1.0  0.19071297271796495  0.9987288721491749  0.9310085009142004  1.0000
  O   O41       1.0  0.4241407759086141  0.594700034921276  0.05209216651791263  1.0000
  O   O42       1.0  0.08675228200148143  0.4068966971159326  0.540382943091215  1.0000
  O   O43       1.0  0.5847670874919201  0.0920658906941106  0.45941112231653636  1.0000
  O   O44       1.0  0.9224338167261595  0.9062121963798193  0.9467252760386002  1.0000
  O   O45       1.0  0.5878684948247072  0.40761658168787673  0.9597740941367524  1.0000
  O   O46       1.0  0.9235449678848466  0.5930535679471394  0.44632199658499877  1.0000
  O   O47       1.0  0.4221581339236963  0.9054266757648869  0.553004157420951  1.0000
  O   O48       1.0  0.08536977371375323  0.09311525622223824  0.040844860514265086  1.0000
  N   N1        1.0  0.4432546607759465  0.33000464790294076  0.1967780836742595  1.0000
  N   N2        1.0  0.04996473609780249  0.6715908856800513  0.6851440936446275  1.0000
  N   N3        1.0  0.5504454499813579  0.8276187526808356  0.3140467714996642  1.0000
  N   N4        1.0  0.9423324258880518  0.17051599218433597  0.8031846697328879  1.0000
  N   N5        1.0  0.549223421395272  0.6717200696872037  0.8144756974612141  1.0000
  N   N6        1.0  0.9439472178844065  0.32642750979245466  0.30384746471113777  1.0000
  N   N7        1.0  0.4428101944807943  0.17025935380625212  0.6965871793093018  1.0000
  N   N8        1.0  0.04921514549634727  0.8290875364930811  0.18530269785668488  1.0000
  N   N9        1.0  0.3488629174240728  0.22167286518861645  0.0707318231606171  1.0000
  N   N10       1.0  0.15119325830568373  0.7826606226945065  0.5647788732464569  1.0000
  N   N11       1.0  0.6513160928157742  0.7168404552676569  0.43504299523962  1.0000
  N   N12       1.0  0.8497414900116153  0.27955089961948404  0.929882669536744  1.0000
  N   N13       1.0  0.6501884996902141  0.7835478903880538  0.9345689411766457  1.0000
  N   N14       1.0  0.8485671819650028  0.21965256360067575  0.4301889855873777  1.0000
  N   N15       1.0  0.349227222345679  0.2790177763113304  0.5701602620630144  1.0000
  N   N16       1.0  0.15129834490293576  0.7179962302003019  0.0652597367619415  1.0000
  N   N17       1.0  0.3173147841733066  0.4334200299848437  0.08957814396974018  1.0000
  N   N18       1.0  0.18501718196437042  0.5716636662456076  0.5841528861065488  1.0000
  N   N19       1.0  0.6843472818277043  0.9278806939570197  0.41571260376032737  1.0000
  N   N20       1.0  0.8157979170787545  0.06833421974964105  0.9104147053686691  1.0000
  N   N21       1.0  0.6850912721285783  0.5727711912566913  0.9153039871708645  1.0000
  N   N22       1.0  0.8173263716062684  0.431152927420023  0.4094939592940423  1.0000
  N   N23       1.0  0.31605899341198695  0.06774083891112415  0.5897118127294476  1.0000
  N   N24       1.0  0.18472189500443256  0.9289133907649485  0.08502783241881713  1.0000
  N   N25       1.0  0.5500367148945237  0.3401195341661064  0.23771820211613287  1.0000
  N   N26       1.0  0.9461455996712722  0.6613140263542522  0.731352260051102  1.0000
  N   N27       1.0  0.44642634872040104  0.837798679842532  0.2681716064600334  1.0000
  N   N28       1.0  0.049063900064600006  0.1585463454613634  0.7625496004327359  1.0000
  N   N29       1.0  0.4456899817874921  0.6608180550617972  0.7679525835980638  1.0000
  N   N30       1.0  0.0509138120319243  0.3360802901693447  0.26324786965542557  1.0000
  N   N31       1.0  0.5494932029175258  0.15888061685834534  0.7375635492493288  1.0000
  N   N32       1.0  0.945659549844915  0.8393364918570753  0.23191249742756886  1.0000
  N   N33       1.0  0.42499457289451  0.19332776335455337  0.9928358289080743  1.0000
  N   N34       1.0  0.07950343840174538  0.8093316136944447  0.48330462122753387  1.0000
  N   N35       1.0  0.5794558732492459  0.6901885482837314  0.5162786679211644  1.0000
  N   N36       1.0  0.9258173460282776  0.30754649920709687  0.007783584296305484  1.0000
  N   N37       1.0  0.5792253973950497  0.8105052324091921  0.016366833059661877  1.0000
  N   N38       1.0  0.9242764447732849  0.19254278709506997  0.5087028662409011  1.0000
  N   N39       1.0  0.42487966330781574  0.3069619269670507  0.49194219721426513  1.0000
  N   N40       1.0  0.08031277432335945  0.6912447595558356  0.9834234110605575  1.0000
  N   N41       1.0  0.35975184858674414  0.5148725174513827  0.02088611689659907  1.0000
  N   N42       1.0  0.15044749693413761  0.4893526593439435  0.5129955146979829  1.0000
  N   N43       1.0  0.6490959584769527  0.009992453338781689  0.4868687252005526  1.0000
  N   N44       1.0  0.8590655142936218  0.9865988614738529  0.9786994770488524  1.0000
  N   N45       1.0  0.6512784124097928  0.4905133684059773  0.9867822882690162  1.0000
  N   N46       1.0  0.8590625459955521  0.5134745228187283  0.47778322345071134  1.0000
  N   N47       1.0  0.35862097657522446  0.9858489282348941  0.5212922621028901  1.0000
  N   N48       1.0  0.14993865866491304  0.011125868461479662  0.013690096610738691  1.0000
  C   C1        1.0  0.3665414642445577  0.4331002017076074  0.18764022091206425  1.0000
  C   C2        1.0  0.129160757002672  0.5698152437568734  0.6793904379640583  1.0000
  C   C3        1.0  0.6289746718340774  0.9296678081860241  0.32018218401054327  1.0000
  C   C4        1.0  0.8641286011642696  0.0687315165355601  0.8120571836248933  1.0000
  C   C5        1.0  0.6289951559450728  0.5704045865645686  0.8201726018120176  1.0000
  C   C6        1.0  0.8672378649518013  0.42975153155594903  0.31170416309440085  1.0000
  C   C7        1.0  0.3650737003097056  0.06809433188958279  0.68783860209729  1.0000
  C   C8        1.0  0.12850950459862906  0.9305918703037099  0.18012743752610816  1.0000
  C   C9        1.0  0.3959401472187367  0.21377308096204403  0.1692246467311453  1.0000
  C   C10       1.0  0.09723835675958255  0.7890886532181792  0.6607023364001463  1.0000
  C   C11       1.0  0.5979089018183331  0.7101705419950174  0.33893937995533757  1.0000
  C   C12       1.0  0.8968555632337017  0.28737659114223585  0.8313987758323124  1.0000
  C   C13       1.0  0.5956432545255451  0.7896493336690518  0.8388930950978779  1.0000
  C   C14       1.0  0.8964583192408726  0.2105121034578532  0.3320734209304561  1.0000
  C   C15       1.0  0.39680741576962814  0.2869198826198967  0.6684890507273752  1.0000
  C   C16       1.0  0.09672510713706171  0.7114582788280728  0.16086891348159188  1.0000
  C   C17       1.0  0.26775352562272287  0.32047293569373825  0.05546773903707795  1.0000
  C   C18       1.0  0.2350948178715978  0.6855945086776125  0.5533640789955149  1.0000
  C   C19       1.0  0.7348170892878562  0.813965746856368  0.44656344294671746  1.0000
  C   C20       1.0  0.7676390710928713  0.1817519407762208  0.9451583146170631  1.0000
  C   C21       1.0  0.7347145622670209  0.6870455448643584  0.9457163072927602  1.0000
  C   C22       1.0  0.7673381547613489  0.3186687940757677  0.4441744427498741  1.0000
  C   C23       1.0  0.26737359978066344  0.18098346910269889  0.5551818621884821  1.0000
  C   C24       1.0  0.23515716607919884  0.814950416092583  0.0544210552846013  1.0000
  H   H1        1.0  0.41523343110947025  0.5167939951789763  0.2003601283931474  1.0000
  H   H2        1.0  0.08085385297814131  0.48527901335605833  0.6888984710206257  1.0000
  H   H3        1.0  0.5802703366572838  0.014061620620426906  0.3104772741626578  1.0000
  H   H4        1.0  0.9115356149365809  0.9843087621957668  0.7983494252988087  1.0000
  H   H5        1.0  0.5810822139527441  0.4855837059251294  0.8107609639319536  1.0000
  H   H6        1.0  0.9162510685900518  0.5131738857926446  0.29863134704829414  1.0000
  H   H7        1.0  0.41306982720649443  0.9839134825079234  0.7009626992172691  1.0000
  H   H8        1.0  0.08042883975418653  0.015336530104011  0.18989146753475358  1.0000
  H   H9        1.0  0.29432849079701856  0.42493766358674034  0.24110310210466374  1.0000
  H   H10       1.0  0.19704223341436006  0.5783479099471572  0.7368069226787778  1.0000
  H   H11       1.0  0.6972641170457894  0.9214470742831185  0.26306955773275964  1.0000
  H   H12       1.0  0.791593165704269  0.07908755718807223  0.7591484636567754  1.0000
  H   H13       1.0  0.6966921283450439  0.5793466070749128  0.7626466713187626  1.0000
  H   H14       1.0  0.7955430996268905  0.42111659409538593  0.2577695854783295  1.0000
  H   H15       1.0  0.2929136132030239  0.07753770535209568  0.7411970672050299  1.0000
  H   H16       1.0  0.19622515679495908  0.9215041129016364  0.23766543427098766  1.0000
  H   H17       1.0  0.46372493664667636  0.1443555702908049  0.1732772308178496  1.0000
  H   H18       1.0  0.02818686070913788  0.8572573118775786  0.6615317150472599  1.0000
  H   H19       1.0  0.5288145325546034  0.6421828594353155  0.33797090823975645  1.0000
  H   H20       1.0  0.9656920841777719  0.35552818812210335  0.8278609747637269  1.0000
  H   H21       1.0  0.5258749123887565  0.857033921346604  0.838553650139501  1.0000
  H   H22       1.0  0.9643629232012172  0.14112068836380606  0.32913044356320803  1.0000
  H   H23       1.0  0.46534930048687806  0.35539853132434457  0.6719099252385983  1.0000
  H   H24       1.0  0.027491144909965105  0.6436310330442802  0.16118666102915288  1.0000
  H   H25       1.0  0.32343861537292834  0.19146083741163294  0.21946557053215568  1.0000
  H   H26       1.0  0.16533176473342642  0.8129782693010467  0.7148196627014668  1.0000
  H   H27       1.0  0.6663349651894339  0.6861215276665804  0.2851222512985847  1.0000
  H   H28       1.0  0.8248376101417157  0.31169888373659843  0.7812021800407863  1.0000
  H   H29       1.0  0.6631289320512694  0.8144919331781894  0.7845097805471759  1.0000
  H   H30       1.0  0.8244530689579453  0.18736252771315567  0.2815407679316959  1.0000
  H   H31       1.0  0.324872467586245  0.3109317153642389  0.7188531682099814  1.0000
  H   H32       1.0  0.16446725565616996  0.6872400105321197  0.2152763582615642  1.0000
  H   H33       1.0  0.24478244837630045  0.3276212443358871  0.9772287591146087  1.0000
  H   H34       1.0  0.26407229612764843  0.6795124107343187  0.476495888255935  1.0000
  H   H35       1.0  0.7639054735473967  0.8201185329483348  0.5234078785645324  1.0000
  H   H36       1.0  0.7449282276889896  0.17463220278319092  0.023451390211797207  1.0000
  H   H37       1.0  0.7644552007099381  0.681260842895017  0.022404617429978343  1.0000
  H   H38       1.0  0.7435403559161479  0.3267329026316901  0.5221593375578464  1.0000
  H   H39       1.0  0.24449523965467887  0.17378779795953808  0.47691428498473354  1.0000
  H   H40       1.0  0.2648779078770818  0.8211272332422765  0.9777735671074126  1.0000
  H   H41       1.0  0.19000935739588923  0.30117807473500796  0.10014118124394907  1.0000
  H   H42       1.0  0.30888333518368055  0.7060821940688832  0.6023643478433875  1.0000
  H   H43       1.0  0.8086458049795962  0.7935731494157503  0.39753522042625544  1.0000
  H   H44       1.0  0.6898826177647804  0.2023626388825815  0.9008019197814093  1.0000
  H   H45       1.0  0.8079441363339344  0.7079458468460695  0.8962316251699125  1.0000
  H   H46       1.0  0.6900546506000237  0.29884221414615586  0.3990483107070727  1.0000
  H   H47       1.0  0.18971467448627366  0.20125258514662156  0.5997392318648368  1.0000
  H   H48       1.0  0.30854956325185734  0.7943631022926521  0.10389940003781552  1.0000
