data_C3H6N6O6
_audit_creation_method 'chmpy python library version 1.0a1'
_cell_length_a 10.225416
_cell_length_b 10.503728
_cell_length_c 13.273384
_cell_angle_alpha 90.0
_cell_angle_beta 90.0
_cell_angle_gamma 90.0
loop_
_symmetry_equiv_pos_site_id
_symmetry_equiv_pos_as_xyz
                   1 -x,-y,-z
                   2 +x,+y,+z
                   3 -x,1/2+y,1/2-z
                   4 +x,1/2-y,1/2+z
                   5 1/2-x,-y,1/2+z
                   6 1/2+x,+y,1/2-z
                   7 1/2-x,1/2+y,+z
                   8 1/2+x,1/2-y,-z
loop_
_atom_site_label
_atom_site_type_symbol
_atom_site_fract_x
_atom_site_fract_y
_atom_site_fract_z
_atom_site_occupancy
O O       0.645078000000       0.342920000000       0.267090000000       1.000000000000
O O       0.638194000000       0.141928000000       0.220767000000       1.000000000000
O O       0.493250000000       0.092349000000       0.932002000000       1.000000000000
O O       0.366668000000       0.228649000000       0.853639000000       1.000000000000
O O       0.326537000000       0.542814000000       0.929169000000       1.000000000000
O O       0.427782000000       0.627556000000       0.058720000000       1.000000000000
N N       0.476071000000       0.275618000000       0.167573000000       1.000000000000
N N       0.347429000000       0.209505000000       0.024334000000       1.000000000000
N N       0.338146000000       0.429502000000       0.075913000000       1.000000000000
N N       0.591641000000       0.252622000000       0.220849000000       1.000000000000
N N       0.404928000000       0.175004000000       0.932698000000       1.000000000000
N N       0.365500000000       0.537915000000       0.018808000000       1.000000000000
C C       0.415251000000       0.403176000000       0.167772000000       1.000000000000
C C       0.405872000000       0.169188000000       0.120391000000       1.000000000000
C C       0.266412000000       0.324790000000       0.027577000000       1.000000000000
H H       0.493749000000       0.475957000000       0.174553000000       1.000000000000
H H       0.350358000000       0.410923000000       0.234700000000       1.000000000000
H H       0.475391000000       0.089730000000       0.107066000000       1.000000000000
H H       0.327849000000       0.135877000000       0.172370000000       1.000000000000
H H       0.239995000000       0.352950000000       0.949358000000       1.000000000000
H H       0.175041000000       0.304894000000       0.070015000000       1.000000000000
#END