data_CTMTNA12.b3lyp.6-311G**.dma4.-155.926.1.815
_audit_creation_method 'generated by cspy2.0'
_cell_length_a 11.6794
_cell_length_b 10.6748
_cell_length_c 13.0394
_cell_angle_alpha 90.0
_cell_angle_beta 90.0
_cell_angle_gamma 90.0
loop_
_symmetry_equiv_pos_site_id
_symmetry_equiv_pos_as_xyz
1 +x,+y,+z
loop_
_atom_site_label
_atom_site_type_symbol
_atom_site_fract_x
_atom_site_fract_y
_atom_site_fract_z
_atom_site_occupancy
O1 O       0.569351520000       0.437746320000       0.263152980000       1.000000000000
O2 O       0.601554060000       0.244138330000       0.222442550000       1.000000000000
O3 O       0.474310590000       0.143426470000      -0.030019570000       1.000000000000
O4 O       0.351895750000       0.253224470000      -0.114921070000       1.000000000000
O5 O       0.301758350000       0.523635620000      -0.066890650000       1.000000000000
O6 O       0.414749640000       0.601507920000       0.047450750000       1.000000000000
O7 O       0.405559740000       0.559443050000       0.743729430000       1.000000000000
O8 O       0.365979390000       0.752016340000       0.782462520000       1.000000000000
O9 O       0.491072190000       0.863058710000       1.032874970000       1.000000000000
O10 O       0.618422690000       0.760682870000       1.118166740000       1.000000000000
O11 O       0.678929370000       0.492115750000       1.072861390000       1.000000000000
O12 O       0.568254560000       0.406958490000       0.960195310000       1.000000000000
O13 O       0.408323060000       0.937746320000       0.239691380000       1.000000000000
O14 O       0.376120510000       0.744138330000       0.280401810000       1.000000000000
O15 O       0.503363980000       0.643426460000       0.532863930000       1.000000000000
O16 O       0.625778830000       0.753224460000       0.617765440000       1.000000000000
O17 O       0.675916220000       1.023635600000       0.569735010000       1.000000000000
O18 O       0.562924930000       1.101507900000       0.455393610000       1.000000000000
O19 O       0.572114830000       0.059443060000       0.759114930000       1.000000000000
O20 O       0.611695180000       0.252016340000       0.720381840000       1.000000000000
O21 O       0.486602370000       0.363058690000       0.469969380000       1.000000000000
O22 O       0.359251870000       0.260682850000       0.384677620000       1.000000000000
O23 O       0.298745210000      -0.007884270000       0.429982970000       1.000000000000
O24 O       0.409420010000      -0.093041520000       0.542649050000       1.000000000000
O25 O       0.908323040000       0.592762690000       0.763152980000       1.000000000000
O26 O       0.876120500000       0.786370690000       0.722442540000       1.000000000000
O27 O       1.003363980000       0.887082530000       0.469980430000       1.000000000000
O28 O       1.125778820000       0.777284520000       0.385078940000       1.000000000000
O29 O       1.175916220000       0.506873380000       0.433109360000       1.000000000000
O30 O       1.062924930000       0.429001090000       0.547450760000       1.000000000000
O31 O       0.072114830000       0.471065950000       0.243729430000       1.000000000000
O32 O       0.111695180000       0.278492670000       0.282462520000       1.000000000000
O33 O      -0.013397630000       0.167450300000       0.532874970000       1.000000000000
O34 O      -0.140748120000       0.269826140000       0.618166750000       1.000000000000
O35 O      -0.201254790000       0.538393260000       0.572861390000       1.000000000000
O36 O      -0.090579990000       0.623550510000       0.460195310000       1.000000000000
O37 O       0.905559740000       0.971065940000       0.259114930000       1.000000000000
O38 O       0.865979390000       0.778492660000       0.220381850000       1.000000000000
O39 O       0.991072200000       0.667450310000      -0.030030630000       1.000000000000
O40 O       1.118422680000       0.769826160000      -0.115322380000       1.000000000000
O41 O       1.178929350000       1.038393270000      -0.070017020000       1.000000000000
O42 O       1.068254560000       1.123550520000       0.042649060000       1.000000000000
O43 O       0.069351520000       0.092762680000       0.739691380000       1.000000000000
O44 O       0.101554070000       0.286370680000       0.780401810000       1.000000000000
O45 O      -0.025689410000       0.387082550000       1.032863930000       1.000000000000
O46 O      -0.148104250000       0.277284550000       1.117765430000       1.000000000000
O47 O      -0.198241660000       0.006873400000       1.069735010000       1.000000000000
O48 O      -0.085250370000      -0.070998900000       0.955393610000       1.000000000000
N1 N       0.439569870000       0.332648320000       0.176219440000       1.000000000000
N2 N       0.326807130000       0.227851380000       0.053507620000       1.000000000000
N3 N       0.295845660000       0.447648200000       0.091683140000       1.000000000000
N4 N       0.541943480000       0.338472520000       0.224075290000       1.000000000000
N5 N       0.390505040000       0.209272010000      -0.036459420000       1.000000000000
N6 N       0.342619490000       0.528175140000       0.018638930000       1.000000000000
N7 N       0.531704610000       0.672123860000       0.828566870000       1.000000000000
N8 N       0.641142110000       0.784311410000       0.949298770000       1.000000000000
N9 N       0.680548410000       0.565561500000       0.913405610000       1.000000000000
N10 N       0.429285610000       0.660595740000       0.781488350000       1.000000000000
N11 N       0.577475870000       0.801390320000       1.039482830000       1.000000000000
N12 N       0.637613440000       0.484152500000       0.987675510000       1.000000000000
N13 N       0.538104700000       0.832648320000       0.326624920000       1.000000000000
N14 N       0.650867440000       0.727851380000       0.449336730000       1.000000000000
N15 N       0.681828900000       0.947648190000       0.411161230000       1.000000000000
N16 N       0.435731090000       0.838472520000       0.278769070000       1.000000000000
N17 N       0.587169520000       0.709271990000       0.539303770000       1.000000000000
N18 N       0.635055090000       1.028175120000       0.484205430000       1.000000000000
N19 N       0.445969940000       0.172123860000       0.674277480000       1.000000000000
N20 N       0.336532460000       0.284311400000       0.553545590000       1.000000000000
N21 N       0.297126150000       0.065561500000       0.589438750000       1.000000000000
N22 N       0.548388960000       0.160595740000       0.721356010000       1.000000000000
N23 N       0.400198680000       0.301390310000       0.463361530000       1.000000000000
N24 N       0.340061120000      -0.015847500000       0.515168860000       1.000000000000
N25 N       1.038104700000       0.697860690000       0.676219430000       1.000000000000
N26 N       1.150867440000       0.802657620000       0.553507620000       1.000000000000
N27 N       1.181828900000       0.582860810000       0.591683140000       1.000000000000
N28 N       0.935731080000       0.692036490000       0.724075290000       1.000000000000
N29 N       1.087169530000       0.821237000000       0.463540580000       1.000000000000
N30 N       1.135055080000       0.502333870000       0.518638940000       1.000000000000
N31 N      -0.054030060000       0.358385140000       0.328566870000       1.000000000000
N32 N      -0.163467540000       0.246197600000       0.449298770000       1.000000000000
N33 N      -0.202873850000       0.464947500000       0.413405610000       1.000000000000
N34 N       0.048388960000       0.369913260000       0.281488350000       1.000000000000
N35 N      -0.099801320000       0.229118680000       0.539482830000       1.000000000000
N36 N      -0.159938870000       0.546356510000       0.487675510000       1.000000000000
N37 N       1.031704610000       0.858385140000       0.174277490000       1.000000000000
N38 N       1.141142110000       0.746197600000       0.053545580000       1.000000000000
N39 N       1.180548410000       0.964947510000       0.089438750000       1.000000000000
N40 N       0.929285610000       0.869913260000       0.221356010000       1.000000000000
N41 N       1.077475870000       0.729118700000      -0.036638470000       1.000000000000
N42 N       1.137613440000       1.046356520000       0.015168870000       1.000000000000
N43 N      -0.060430120000       0.197860690000       0.826624930000       1.000000000000
N44 N      -0.173192870000       0.302657640000       0.949336730000       1.000000000000
N45 N      -0.204154340000       0.082860820000       0.911161220000       1.000000000000
N46 N       0.041943470000       0.192036480000       0.778769070000       1.000000000000
N47 N      -0.109494950000       0.321237010000       1.039303780000       1.000000000000
N48 N      -0.157380520000       0.002333880000       0.984205430000       1.000000000000
C1 C       0.358413840000       0.435212670000       0.187189230000       1.000000000000
C2 C       0.389940490000       0.212458070000       0.148502990000       1.000000000000
C3 C       0.245361260000       0.331313000000       0.053779950000       1.000000000000
C4 C       0.616790010000       0.573347660000       0.818201650000       1.000000000000
C5 C       0.576705000000       0.795034140000       0.854575830000       1.000000000000
C6 C       0.726637460000       0.684837800000       0.949637850000       1.000000000000
C7 C       0.619260720000       0.935212670000       0.315655140000       1.000000000000
C8 C       0.587734080000       0.712458060000       0.354341360000       1.000000000000
C9 C       0.732313320000       0.831312990000       0.449064410000       1.000000000000
C10 C       0.360884550000       0.073347650000       0.684642710000       1.000000000000
C11 C       0.400969560000       0.295034140000       0.648268520000       1.000000000000
C12 C       0.251037100000       0.184837800000       0.553206510000       1.000000000000
C13 C       1.119260720000       0.595296330000       0.687189230000       1.000000000000
C14 C       1.087734070000       0.818050940000       0.648502990000       1.000000000000
C15 C       1.232313320000       0.699196010000       0.553779950000       1.000000000000
C16 C      -0.139115450000       0.457161340000       0.318201650000       1.000000000000
C17 C      -0.099030440000       0.235474870000       0.354575830000       1.000000000000
C18 C      -0.248962900000       0.345671210000       0.449637850000       1.000000000000
C19 C       1.116790010000       0.957161340000       0.184642710000       1.000000000000
C20 C       1.076705000000       0.735474860000       0.148268520000       1.000000000000
C21 C       1.226637460000       0.845671210000       0.053206510000       1.000000000000
C22 C      -0.141586160000       0.095296340000       0.815655140000       1.000000000000
C23 C      -0.110059510000       0.318050940000       0.854341360000       1.000000000000
C24 C      -0.254638740000       0.199196020000       0.949064410000       1.000000000000
H1 H       0.397980590000       0.520667660000       0.209618860000       1.000000000000
H2 H       0.294840510000       0.410645250000       0.244982400000       1.000000000000
H3 H       0.454074600000       0.142069120000       0.143534440000       1.000000000000
H4 H       0.327223550000       0.185134060000       0.207837340000       1.000000000000
H5 H       0.207997830000       0.344450880000      -0.021816390000       1.000000000000
H6 H       0.177380060000       0.306946540000       0.106964390000       1.000000000000
H7 H       0.580497130000       0.485707500000       0.797015860000       1.000000000000
H8 H       0.678863160000       0.599920970000       0.759699310000       1.000000000000
H9 H       0.509862240000       0.862376660000       0.859187920000       1.000000000000
H10 H       0.637800340000       0.824293630000       0.794507160000       1.000000000000
H11 H       0.765086460000       0.674803550000       1.025116160000       1.000000000000
H12 H       0.793158630000       0.711500310000       0.895715560000       1.000000000000
H13 H       0.579693980000       1.020667660000       0.293225500000       1.000000000000
H14 H       0.682834050000       0.910645250000       0.257861970000       1.000000000000
H15 H       0.523599960000       0.642069120000       0.359309910000       1.000000000000
H16 H       0.650451020000       0.685134060000       0.295007010000       1.000000000000
H17 H       0.769676730000       0.844450870000       0.524660750000       1.000000000000
H18 H       0.800294520000       0.806946530000       0.395879970000       1.000000000000
H19 H       0.397177430000      -0.014292500000       0.705828500000       1.000000000000
H20 H       0.298811400000       0.099920980000       0.743145050000       1.000000000000
H21 H       0.467812330000       0.362376660000       0.643656420000       1.000000000000
H22 H       0.339874230000       0.324293630000       0.708337190000       1.000000000000
H23 H       0.212588100000       0.174803540000       0.477728200000       1.000000000000
H24 H       0.184515940000       0.211500310000       0.607128800000       1.000000000000
H25 H       1.079693980000       0.509841350000       0.709618870000       1.000000000000
H26 H       1.182834050000       0.619863750000       0.744982400000       1.000000000000
H27 H       1.023599960000       0.888439890000       0.643534430000       1.000000000000
H28 H       1.150451010000       0.845374940000       0.707837340000       1.000000000000
H29 H       1.269676730000       0.686058120000       0.478183610000       1.000000000000
H30 H       1.300294510000       0.723562470000       0.606964400000       1.000000000000
H31 H      -0.102822570000       0.544801500000       0.297015870000       1.000000000000
H32 H      -0.201188600000       0.430588030000       0.259699310000       1.000000000000
H33 H      -0.032187670000       0.168132340000       0.359187920000       1.000000000000
H34 H      -0.160125770000       0.206215370000       0.294507160000       1.000000000000
H35 H      -0.287411900000       0.355705450000       0.525116160000       1.000000000000
H36 H      -0.315484060000       0.319008700000       0.395715560000       1.000000000000
H37 H       1.080497130000       1.044801500000       0.205828500000       1.000000000000
H38 H       1.178863160000       0.930588020000       0.243145060000       1.000000000000
H39 H       1.009862240000       0.668132340000       0.143656420000       1.000000000000
H40 H       1.137800340000       0.706215370000       0.208337190000       1.000000000000
H41 H       1.265086460000       0.855705470000      -0.022271810000       1.000000000000
H42 H       1.293158620000       0.819008710000       0.107128800000       1.000000000000
H43 H      -0.102019420000       0.009841350000       0.793225510000       1.000000000000
H44 H      -0.205159480000       0.119863760000       0.757861970000       1.000000000000
H45 H      -0.045925400000       0.388439900000       0.859309920000       1.000000000000
H46 H      -0.172776440000       0.345374950000       0.795007010000       1.000000000000
H47 H      -0.292002170000       0.186058140000       1.024660750000       1.000000000000
H48 H      -0.322619940000       0.223562480000       0.895879960000       1.000000000000
#END