data_cif

_audit_creation_method             'generated by GULP'

_symmetry_space_group_name_H-M     'P B C A         '
_symmetry_Int_Tables_number        61
_symmetry_cell_setting             Orthorhombic

_cell_length_a                      11.737373
_cell_length_b                      10.703820
_cell_length_c                      13.791855
_cell_angle_alpha                   90.000000
_cell_angle_beta                    90.000000
_cell_angle_gamma                   90.000000

loop_
_atom_site_label
_atom_site_fract_x
_atom_site_fract_y
_atom_site_fract_z
_atom_site_occupancy
  O5          0.59672      0.39967      0.25439  1.0000
  O5          0.61813      0.20186      0.22484  1.0000
  O5          0.49234      0.12962      0.94990  1.0000
  O5          0.35713      0.23361      0.88030  1.0000
  O5          0.30021      0.49513      0.93001  1.0000
  O5          0.40813      0.59118      0.03320  1.0000
  N3          0.46653      0.30239      0.16030  1.0000
  N3          0.34964      0.20541      0.04229  1.0000
  N3          0.31661      0.41719      0.08163  1.0000
  N1          0.56544      0.30058      0.21851  1.0000
  N1          0.40700      0.19562      0.95261  1.0000
  N1          0.34947      0.50220      0.00830  1.0000
  C2          0.38543      0.40687      0.17021  1.0000
  C2          0.41293      0.18386      0.13186  1.0000
  C2          0.26101      0.30007      0.05454  1.0000
  H4          0.43133      0.49467      0.18336  1.0000
  H4          0.32908      0.38982      0.23242  1.0000
  H4          0.47722      0.11066      0.12039  1.0000
  H4          0.35470      0.15234      0.18938  1.0000
  H4          0.20979      0.31048      0.98824  1.0000
  H4          0.20329      0.27107      0.11291  1.0000
