data_MALIAC11.b3lyp.6-311G**.dma4.-88.1203.1.6295
_audit_creation_method 'generated by cspy2.0'
_cell_length_a 7.5815
_cell_length_b 10.2145
_cell_length_c 7.4738
_cell_angle_alpha 90.0
_cell_angle_beta 125.16750000000002
_cell_angle_gamma 90.0
loop_
_symmetry_equiv_pos_site_id
_symmetry_equiv_pos_as_xyz
1 +x,+y,+z
loop_
_atom_site_label
_atom_site_type_symbol
_atom_site_fract_x
_atom_site_fract_y
_atom_site_fract_z
_atom_site_occupancy
C1 C       0.969723350000       0.352317170000       0.256145410000       1.000000000000
C2 C       0.812681990000       0.433467300000       0.262758760000       1.000000000000
C3 C       0.640883490000       0.394042420000       0.256268590000       1.000000000000
C4 C       0.553457200000       0.261192390000       0.242674400000       1.000000000000
C5 C       0.045243950000       0.624726710000       0.783395760000       1.000000000000
C6 C       0.200415780000       0.543760770000       0.773393220000       1.000000000000
C7 C       0.371975220000       0.583242420000       0.779488020000       1.000000000000
C8 C       0.460854560000       0.716010850000       0.795786900000       1.000000000000
C9 C       0.045086720000       0.852317170000       0.282595720000       1.000000000000
C10 C       0.202128070000       0.933467300000       0.275982370000       1.000000000000
C11 C       0.373926560000       0.894042420000       0.282472560000       1.000000000000
C12 C       0.461352850000       0.761192400000       0.296066750000       1.000000000000
C13 C       0.969566120000       0.124726710000       0.755345400000       1.000000000000
C14 C       0.814394280000       0.043760780000       0.765347920000       1.000000000000
C15 C       0.642834850000       0.083242410000       0.759253130000       1.000000000000
C16 C       0.553955500000       0.216010850000       0.742954240000       1.000000000000
H1 H       1.216719880000       0.362057270000       0.260666760000       1.000000000000
H2 H       0.844881990000       0.529608170000       0.284606890000       1.000000000000
H3 H       0.542665790000       0.468290420000       0.249614660000       1.000000000000
H4 H       0.757892570000       0.178704770000       0.225478380000       1.000000000000
H5 H      -0.200749300000       0.614854060000       0.780654680000       1.000000000000
H6 H       0.166921150000       0.447814900000       0.749275290000       1.000000000000
H7 H       0.468799160000       0.509010150000       0.783476050000       1.000000000000
H8 H       0.258615300000       0.798180010000       0.816847310000       1.000000000000
H9 H      -0.201909820000       0.862057270000       0.278074380000       1.000000000000
H10 H       0.169928060000       1.029608170000       0.254134230000       1.000000000000
H11 H       0.472144260000       0.968290410000       0.289126490000       1.000000000000
H12 H       0.256917500000       0.678704780000       0.313262770000       1.000000000000
H13 H       1.215559360000       0.114854050000       0.758086470000       1.000000000000
H14 H       0.847888920000      -0.052185100000       0.789465850000       1.000000000000
H15 H       0.546010900000       0.009010160000       0.755265090000       1.000000000000
H16 H       0.756194770000       0.298180010000       0.721893830000       1.000000000000
O1 O       0.961597390000       0.233185530000       0.237329400000       1.000000000000
O2 O       1.120524420000       0.422028830000       0.269946440000       1.000000000000
O3 O       0.393190010000       0.249105430000       0.241970380000       1.000000000000
O4 O       0.646837860000       0.156234540000       0.234829100000       1.000000000000
O5 O       0.055058340000       0.743672220000       0.805250080000       1.000000000000
O6 O      -0.105876650000       0.555046030000       0.769014930000       1.000000000000
O7 O       0.620529220000       0.728204290000       0.795471760000       1.000000000000
O8 O       0.369367170000       0.820815590000       0.807102660000       1.000000000000
O9 O       0.053212670000       0.733185540000       0.301411750000       1.000000000000
O10 O      -0.105714380000       0.922028830000       0.268794700000       1.000000000000
O11 O       0.621620050000       0.749105420000       0.296770770000       1.000000000000
O12 O       0.367972210000       0.656234540000       0.303912040000       1.000000000000
O13 O       0.959751730000       0.243672220000       0.733491070000       1.000000000000
O14 O       1.120686720000       0.055046030000       0.769726220000       1.000000000000
O15 O       0.394280850000       0.228204280000       0.743269400000       1.000000000000
O16 O       0.645442900000       0.320815580000       0.731638470000       1.000000000000
#END