data_image0
_chemical_formula_structural       C16H16O16
_chemical_formula_sum              "C16 H16 O16"
_cell_length_a       7.473
_cell_length_b       10.098
_cell_length_c       7.627
_cell_angle_alpha    90.0
_cell_angle_beta     123.59
_cell_angle_gamma    90.0

_space_group_name_H-M_alt    "P 1"
_space_group_IT_number       1

loop_
  _space_group_symop_operation_xyz
  'x, y, z'

loop_
  _atom_site_type_symbol
  _atom_site_label
  _atom_site_symmetry_multiplicity
  _atom_site_fract_x
  _atom_site_fract_y
  _atom_site_fract_z
  _atom_site_occupancy
  C   C1        1.0  0.9702623914268447  0.35173709781166196  0.25267968268828356  1.0000
  C   C2        1.0  0.029737525024561312  0.8517369977169312  0.2473202642467027  1.0000
  C   C3        1.0  0.0298263410252756  0.648262893456304  0.7472915405936706  1.0000
  C   C4        1.0  0.9701737943741955  0.14826300206877732  0.7527082712632089  1.0000
  C   C5        1.0  0.8084434898385116  0.43715734383610305  0.2511690926359365  1.0000
  C   C6        1.0  0.19155656911634264  0.9371573493027084  0.24883101780835357  1.0000
  C   C7        1.0  0.1920490752955122  0.5628621217297649  0.74951978895512  1.0000
  C   C8        1.0  0.8079503445073981  0.06286224450474957  0.7504794388380074  1.0000
  C   C9        1.0  0.6349262097490156  0.4000449447670341  0.25083594288054956  1.0000
  C   C10       1.0  0.36507357698399495  0.9000449653295696  0.24916389113691287  1.0000
  C   C11       1.0  0.3656995427376192  0.5999702862128932  0.7500842698092964  1.0000
  C   C12       1.0  0.63430106051241  0.09997019422333149  0.7499163900683061  1.0000
  C   C13       1.0  0.5526854871377405  0.26635357066674376  0.2534990826069298  1.0000
  C   C14       1.0  0.4473144483028343  0.7663535749605892  0.24650099439788914  1.0000
  C   C15       1.0  0.4478968134246462  0.7336623512275231  0.7473269875741355  1.0000
  C   C16       1.0  0.5521038011880327  0.23366241058628304  0.7526735474262848  1.0000
  H   H1        1.0  0.2311813257008892  0.35743128065060104  0.25526385652333666  1.0000
  H   H2        1.0  0.7688186210333668  0.8574312894820351  0.2447361449535446  1.0000
  H   H3        1.0  0.7699207995252842  0.6425108097760832  0.7465230771572718  1.0000
  H   H4        1.0  0.23007909718805863  0.14251089778104972  0.7534767844165708  1.0000
  H   H5        1.0  0.8359997955328825  0.5431436832524171  0.2485293233224582  1.0000
  H   H6        1.0  0.16400012008194068  0.043143777391513455  0.25147064282320336  1.0000
  H   H7        1.0  0.1645495237523265  0.45687715059520284  0.7522125490506179  1.0000
  H   H8        1.0  0.8354505687223169  0.9568770829696321  0.7477876451604798  1.0000
  H   H9        1.0  0.5349782544593014  0.47934713141719126  0.2494330099559831  1.0000
  H   H10       1.0  0.4650216707098469  0.9793471076986133  0.25056698887881856  1.0000
  H   H11       1.0  0.4658881634529568  0.5206593149719363  0.7519544754064102  1.0000
  H   H12       1.0  0.5341116146733595  0.020659201827638553  0.7480453071315437  1.0000
  H   H13       1.0  0.7881274142547763  0.1798622894721415  0.2540369915379016  1.0000
  H   H14       1.0  0.21187249324219157  0.6798622561787631  0.24596301692399652  1.0000
  H   H15       1.0  0.21147981203823596  0.8201466415821387  0.7451899731334928  1.0000
  H   H16       1.0  0.7885198892042425  0.3201464785218435  0.7548100058599224  1.0000
  O   O1        1.0  0.965545515775199  0.22769546053315387  0.24950774642651893  1.0000
  O   O2        1.0  0.034454312879504886  0.7276954311149452  0.25049198297625985  1.0000
  O   O3        1.0  0.03361703616568777  0.7723147301451239  0.7488943069983239  1.0000
  O   O4        1.0  0.9663828034555326  0.2723148019303572  0.7511057317810814  1.0000
  O   O5        1.0  0.12246128353794766  0.4195132725767386  0.25629646972109826  1.0000
  O   O6        1.0  0.8775386010446147  0.9195132500155417  0.24370351817871455  1.0000
  O   O7        1.0  0.8783946155484622  0.5804450294704012  0.7450422709050384  1.0000
  O   O8        1.0  0.12160554195124633  0.08044511778707217  0.7549579956243536  1.0000
  O   O9        1.0  0.3868383576861063  0.25580314568012613  0.25448230567238533  1.0000
  O   O10       1.0  0.6131618779485063  0.7558031243769375  0.24551774156863174  1.0000
  O   O11       1.0  0.6142228243580112  0.7442335487136276  0.7471929029142558  1.0000
  O   O12       1.0  0.3857773803929009  0.24423364986969448  0.7528070093131629  1.0000
  O   O13       1.0  0.6522122304038832  0.15800405428140618  0.25679485426359316  1.0000
  O   O14       1.0  0.3477878920308946  0.6580041095849527  0.24320532602127476  1.0000
  O   O15       1.0  0.3475238148847296  0.841961743157172  0.7426022160096691  1.0000
  O   O16       1.0  0.6524761455263413  0.34196186529696054  0.7573976324715076  1.0000
