data_cif

_audit_creation_method             'generated by GULP'

_symmetry_space_group_name_H-M     'P 1 21/C 1      '
_symmetry_Int_Tables_number        14
_symmetry_cell_setting             Monoclinic  

_cell_length_a                       7.704941
_cell_length_b                      10.409754
_cell_length_c                       6.717594
_cell_angle_alpha                   90.000000
_cell_angle_beta                   117.256832
_cell_angle_gamma                   90.000000

loop_
_atom_site_label
_atom_site_fract_x
_atom_site_fract_y
_atom_site_fract_z
_atom_site_occupancy
  C3          0.96443      0.36603      0.22847  1.0000
  C2          0.80976      0.44481      0.24121  1.0000
  C1          0.63375      0.41067      0.22827  1.0000
  C3          0.53301      0.28498      0.20228  1.0000
  H5          0.20165      0.36239      0.23725  1.0000
  H6          0.84501      0.54668      0.26362  1.0000
  H6          0.54710      0.48929      0.24168  1.0000
  H5          0.75725      0.20778      0.21661  1.0000
  O7          0.95253      0.25119      0.19496  1.0000
  O4          0.12200      0.43105      0.25529  1.0000
  O7          0.36889      0.27700      0.18392  1.0000
  O4          0.63196      0.17870      0.20629  1.0000
