data_C4H4O4
_audit_creation_method 'chmpy python library version 1.0a1'
_cell_length_a 7.832009
_cell_length_b 9.042476
_cell_length_c 7.097643
_cell_angle_alpha 90.0
_cell_angle_beta 118.80196800000002
_cell_angle_gamma 90.0
loop_
_symmetry_equiv_pos_site_id
_symmetry_equiv_pos_as_xyz
                   1 -x,-y,-z
                   2 +x,+y,+z
                   3 -x,1/2+y,1/2-z
                   4 +x,1/2-y,1/2+z
loop_
_atom_site_label
_atom_site_type_symbol
_atom_site_fract_x
_atom_site_fract_y
_atom_site_fract_z
_atom_site_occupancy
C C       0.974366000000       0.350086000000       0.258830000000       1.000000000000
C C       0.809697000000       0.436825000000       0.252182000000       1.000000000000
C C       0.643146000000       0.392139000000       0.249448000000       1.000000000000
C C       0.567626000000       0.242332000000       0.259878000000       1.000000000000
H H       0.246846000000       0.355633000000       0.329866000000       1.000000000000
H H       0.836523000000       0.556687000000       0.259728000000       1.000000000000
H H       0.546894000000       0.480246000000       0.250329000000       1.000000000000
H H       0.771417000000       0.137164000000       0.223975000000       1.000000000000
O O       0.957310000000       0.223623000000       0.185159000000       1.000000000000
O O       0.150661000000       0.421281000000       0.346665000000       1.000000000000
O O       0.419669000000       0.236268000000       0.281768000000       1.000000000000
O O       0.656646000000       0.114621000000       0.247563000000       1.000000000000
#END