data_image0
_chemical_formula_structural       C16H16O16
_chemical_formula_sum              "C16 H16 O16"
_cell_length_a       7.352194343865467
_cell_length_b       10.170637491050439
_cell_length_c       8.839450082917068
_cell_angle_alpha    90.18332129749058
_cell_angle_beta     131.10379232714698
_cell_angle_gamma    90.0040603521921

_space_group_name_H-M_alt    "P 1"
_space_group_IT_number       1

loop_
  _space_group_symop_operation_xyz
  'x, y, z'

loop_
  _atom_site_type_symbol
  _atom_site_label
  _atom_site_symmetry_multiplicity
  _atom_site_fract_x
  _atom_site_fract_y
  _atom_site_fract_z
  _atom_site_occupancy
  C   C1        1.0  0.9721523331308277  0.3585302366293472  0.25976202612836335  1.0000
  C   C2        1.0  0.02756534065501557  0.8583145502081827  0.2403275979360765  1.0000
  C   C3        1.0  0.02822231510777733  0.6415848336075716  0.7404227443782256  1.0000
  C   C4        1.0  0.9716177938874394  0.14174072016563613  0.7590505966542095  1.0000
  C   C5        1.0  0.8055635087249029  0.44337142630063947  0.25491621221701277  1.0000
  C   C6        1.0  0.19448098086240775  0.9432444753474734  0.24555166822654748  1.0000
  C   C7        1.0  0.19538673732078354  0.556660587484261  0.7460510621323827  1.0000
  C   C8        1.0  0.8050262146541111  0.05681122183528003  0.7541365019323266  1.0000
  C   C9        1.0  0.6306862620545375  0.4072814764387702  0.25686088268568263  1.0000
  C   C10       1.0  0.3692553577635749  0.9071463857547255  0.24345533867691807  1.0000
  C   C11       1.0  0.3702863634257134  0.5926572708184652  0.7441112635964755  1.0000
  C   C12       1.0  0.63007844212604  0.09294104728629773  0.7559651334301163  1.0000
  C   C13       1.0  0.5565745928711167  0.27441344893685876  0.26753545416352603  1.0000
  C   C14       1.0  0.44311437703133866  0.7743045900694883  0.23244344064024386  1.0000
  C   C15       1.0  0.44352657069414225  0.7253549420528665  0.7321981336381091  1.0000
  C   C16       1.0  0.5561876341407809  0.22581962926670632  0.7669735105645847  1.0000
  H   H1        1.0  0.24839917905332673  0.3590068522433958  0.27268054810848924  1.0000
  H   H2        1.0  0.7532562931332722  0.8587877257882636  0.22992316689027403  1.0000
  H   H3        1.0  0.7520771203715758  0.6410470884595254  0.7278439333041065  1.0000
  H   H4        1.0  0.24736168458432942  0.14130248471903578  0.7712797458583192  1.0000
  H   H5        1.0  0.8320631344226934  0.5489582920401516  0.24951000449296168  1.0000
  H   H6        1.0  0.16888266058820853  0.0488101644851502  0.25218534262742787  1.0000
  H   H7        1.0  0.16960442229281658  0.45111963428017304  0.7525319293567699  1.0000
  H   H8        1.0  0.8314564125343965  0.951192526502636  0.7486645873520409  1.0000
  H   H9        1.0  0.5267479535172745  0.4868476042528666  0.2530145725221614  1.0000
  H   H10       1.0  0.4740921386644582  0.9868039556991567  0.24843820929164556  1.0000
  H   H11       1.0  0.4751376655499689  0.5129349071822626  0.7493072581576886  1.0000
  H   H12       1.0  0.5258289688175284  0.013261230294690545  0.7516412395140379  1.0000
  H   H13       1.0  0.793406195069494  0.1924201971342013  0.2586492299939311  1.0000
  H   H14       1.0  0.20374347228177456  0.6922944112228173  0.23819998583350027  1.0000
  H   H15       1.0  0.2057505379810886  0.8073450904334781  0.7401679343087058  1.0000
  H   H16       1.0  0.7941380895319843  0.30762099640155677  0.759152968163696  1.0000
  O   O1        1.0  0.9619850953998473  0.23527548717691574  0.25271881617816555  1.0000
  O   O2        1.0  0.03587380341575242  0.7350500049693495  0.24482449529008066  1.0000
  O   O3        1.0  0.03772422418140512  0.7648558891315195  0.7462756088844013  1.0000
  O   O4        1.0  0.9617349446165028  0.26496764966616027  0.7525088604995126  1.0000
  O   O5        1.0  0.13305963315253713  0.42337993005905866  0.271163686529991  1.0000
  O   O6        1.0  0.8689504579033528  0.9232438727633575  0.23179931259861253  1.0000
  O   O7        1.0  0.8681232488275257  0.576699363093006  0.7300062834996844  1.0000
  O   O8        1.0  0.13198620281100357  0.07694345895074134  0.769777140369919  1.0000
  O   O9        1.0  0.39476712340489545  0.26307140016686076  0.27677017717615077  1.0000
  O   O10       1.0  0.6068584780078411  0.7629360531124332  0.22552036499526013  1.0000
  O   O11       1.0  0.6053937580852058  0.7366202884893942  0.7229868094317522  1.0000
  O   O12       1.0  0.39383420857212653  0.23721756965786955  0.7755640773608474  1.0000
  O   O13       1.0  0.656955502327285  0.16920873209220041  0.2682953332368233  1.0000
  O   O14       1.0  0.3410051537292788  0.6690678261749169  0.22941464619649776  1.0000
  O   O15       1.0  0.3425462355468442  0.8305601973451527  0.7305650773385164  1.0000
  O   O16       1.0  0.6575357773780636  0.33095683206852555  0.7688579106593535  1.0000
