data_cif

_audit_creation_method             'generated by GULP'

_symmetry_space_group_name_H-M     'P 1             '
_symmetry_Int_Tables_number        1
_symmetry_cell_setting             Triclinic   

_cell_length_a                       9.796961
_cell_length_b                       9.796815
_cell_length_c                       6.004524
_cell_angle_alpha                   89.999698
_cell_angle_beta                    89.998991
_cell_angle_gamma                   90.000391

loop_
_atom_site_label
_atom_site_fract_x
_atom_site_fract_y
_atom_site_fract_z
_atom_site_occupancy
  C1          0.12070      0.06360      0.12700  1.0000
  C1          0.87670      0.04801      0.12698  1.0000
  C1          0.61667      0.58736      0.34704  1.0000
  C1          0.38074      0.52426      0.34702  1.0000
  C1          0.46714      0.67378      0.62731  1.0000
  C1          0.53025      0.43785      0.62731  1.0000
  C1          0.99091      0.17781      0.84734  1.0000
  C1          0.00651      0.93381      0.84733  1.0000
  C2          0.99870      0.05581      0.98716  1.0000
  C2          0.49870      0.55581      0.48717  1.0000
  N3          0.28110      0.07807      0.48269  1.0000
  N3          0.71630      0.03356      0.48269  1.0000
  N3          0.77738      0.57865      0.98933  1.0000
  N3          0.22002      0.53297      0.98933  1.0000
  N3          0.47587      0.83451      0.98501  1.0000
  N3          0.52154      0.27712      0.98501  1.0000
  N3          0.97645      0.33822      0.49164  1.0000
  N3          0.02096      0.77339      0.49164  1.0000
  O4          0.18539      0.04251      0.31573  1.0000
  O4          0.81201      0.06911      0.31572  1.0000
  O4          0.68045      0.60835      0.15744  1.0000
  O4          0.31696      0.50328      0.15744  1.0000
  O4          0.44618      0.73757      0.81690  1.0000
  O4          0.55123      0.37406      0.81690  1.0000
  O4          0.01199      0.24251      0.65861  1.0000
  O4          0.98542      0.86911      0.65860  1.0000
  O5          0.30385      0.98985      0.62207  1.0000
  O5          0.69356      0.12178      0.62207  1.0000
  O5          0.78746      0.66267      0.83934  1.0000
  O5          0.20994      0.44895      0.83935  1.0000
  O5          0.39185      0.84458      0.13499  1.0000
  O5          0.60556      0.26704      0.13499  1.0000
  O5          0.06466      0.36095      0.35225  1.0000
  O5          0.93274      0.75066      0.35225  1.0000
  O5          0.35342      0.17692      0.44236  1.0000
  O5          0.64396      0.93472      0.44236  1.0000
  O5          0.85405      0.48224      0.02461  1.0000
  O5          0.14336      0.62940      0.02461  1.0000
  O5          0.57229      0.91117      0.94972  1.0000
  O5          0.42513      0.20045      0.94972  1.0000
  O5          0.87761      0.41057      0.53198  1.0000
  O5          0.11979      0.70105      0.53198  1.0000
