data_PERYTN10.b3lyp.6-311G**.dma4.-323.7506.1.6657
_audit_creation_method 'generated by cspy2.0'
_cell_length_a 8.9295
_cell_length_b 8.9542
_cell_length_c 7.9623
_cell_angle_alpha 90.0
_cell_angle_beta 98.0939
_cell_angle_gamma 90.0
loop_
_symmetry_equiv_pos_site_id
_symmetry_equiv_pos_as_xyz
1 +x,+y,+z
loop_
_atom_site_label
_atom_site_type_symbol
_atom_site_fract_x
_atom_site_fract_y
_atom_site_fract_z
_atom_site_occupancy
C1 C       0.109011600000       0.067583860000       0.146926930000       1.000000000000
C2 C       0.000000000000       0.000000000000       0.000000000000       1.000000000000
C3 C      -0.099321740000       0.126893690000      -0.084437420000       1.000000000000
C4 C      -0.105121350000      -0.118777620000       0.059474090000       1.000000000000
C5 C       0.095431490000      -0.075699930000      -0.121963600000       1.000000000000
C6 C       0.370519180000       0.567583850000       0.371764820000       1.000000000000
C7 C       0.479530770000       0.500000000000       0.518691740000       1.000000000000
C8 C       0.578852510000       0.626893690000       0.603129170000       1.000000000000
C9 C       0.584652130000       0.381222390000       0.459217660000       1.000000000000
C10 C       0.384099290000       0.424300070000       0.640655350000       1.000000000000
N1 N       0.304823940000      -0.016908300000       0.360468190000       1.000000000000
N2 N      -0.064976090000       0.359052550000      -0.220542870000       1.000000000000
N3 N      -0.293441140000      -0.132883820000       0.243457950000       1.000000000000
N4 N       0.053593280000      -0.209260410000      -0.383383260000       1.000000000000
N5 N       0.174706830000       0.483091690000       0.158223560000       1.000000000000
N6 N       0.544506860000       0.859052540000       0.739234620000       1.000000000000
N7 N       0.772971910000       0.367116180000       0.275233800000       1.000000000000
N8 N       0.425937480000       0.290739590000       0.902075020000       1.000000000000
O1 O       0.182077330000      -0.059635200000       0.240050810000       1.000000000000
O2 O       0.359799690000      -0.120675880000       0.443153880000       1.000000000000
O3 O       0.339791440000       0.115444430000       0.365214500000       1.000000000000
O4 O       0.002787870000       0.223323290000      -0.163670580000       1.000000000000
O5 O      -0.173864940000      -0.048436050000       0.195666610000       1.000000000000
O6 O      -0.011000280000      -0.115252070000      -0.272046850000       1.000000000000
O7 O       0.016372610000       0.434874590000      -0.293672190000       1.000000000000
O8 O      -0.193129290000       0.382713360000      -0.188747380000       1.000000000000
O9 O      -0.344633850000      -0.078899160000       0.361485060000       1.000000000000
O10 O      -0.329866710000      -0.246048980000       0.161351880000       1.000000000000
O11 O      -0.031538450000      -0.235299540000      -0.510966740000       1.000000000000
O12 O       0.183204550000      -0.252108800000      -0.337819000000       1.000000000000
O13 O       0.297453440000       0.440364800000       0.278640940000       1.000000000000
O14 O       0.119731080000       0.379324120000       0.075537860000       1.000000000000
O15 O       0.139739330000       0.615444440000       0.153477240000       1.000000000000
O16 O       0.476742900000       0.723323300000       0.682362340000       1.000000000000
O17 O       0.653395710000       0.451563950000       0.323025130000       1.000000000000
O18 O       0.490531050000       0.384747940000       0.790738600000       1.000000000000
O19 O       0.463158170000       0.934874600000       0.812363950000       1.000000000000
O20 O       0.672660060000       0.882713360000       0.707439130000       1.000000000000
O21 O       0.824164630000       0.421100840000       0.157206690000       1.000000000000
O22 O       0.809397480000       0.253951020000       0.357339860000       1.000000000000
O23 O       0.511069220000       0.264700460000       1.029658490000       1.000000000000
O24 O       0.296326210000       0.247891190000       0.856510740000       1.000000000000
H1 H       0.192867280000       0.137586170000       0.098201700000       1.000000000000
H2 H       0.046943460000       0.133815370000       0.228827380000       1.000000000000
H3 H      -0.151117340000       0.188802580000       0.010103980000       1.000000000000
H4 H      -0.187373790000       0.082252090000      -0.179750630000       1.000000000000
H5 H      -0.191852370000      -0.150942030000      -0.044354110000       1.000000000000
H6 H      -0.040620160000      -0.217026990000       0.106662030000       1.000000000000
H7 H       0.150102420000      -0.175446730000      -0.063951570000       1.000000000000
H8 H       0.181050500000       0.000959540000      -0.155738780000       1.000000000000
H9 H       0.286663490000       0.637586170000       0.420490050000       1.000000000000
H10 H       0.432587310000       0.633815360000       0.289864360000       1.000000000000
H11 H       0.630648120000       0.688802590000       0.508587770000       1.000000000000
H12 H       0.666904570000       0.582252090000       0.698442380000       1.000000000000
H13 H       0.671383140000       0.349057980000       0.563045850000       1.000000000000
H14 H       0.520150930000       0.282973010000       0.412029720000       1.000000000000
H15 H       0.329428350000       0.324553270000       0.582643320000       1.000000000000
H16 H       0.298480280000       0.500959530000       0.674430530000       1.000000000000
#END