data_C2NO3
_audit_creation_method 'chmpy python library version 1.0a1'
_cell_length_a 9.625731
_cell_length_b 9.625731
_cell_length_c 5.573427
_cell_angle_alpha 90.0
_cell_angle_beta 90.0
_cell_angle_gamma 90.0
loop_
_symmetry_equiv_pos_site_id
_symmetry_equiv_pos_as_xyz
                   1 -x,-y,+z
                   2 -y,+x,-z
                   3 +y,-x,-z
                   4 +x,+y,+z
                   5 1/2-x,1/2+y,1/2-z
                   6 1/2-y,1/2-x,1/2+z
                   7 1/2+y,1/2+x,1/2+z
                   8 1/2+x,1/2-y,1/2-z
loop_
_atom_site_label
_atom_site_type_symbol
_atom_site_fract_x
_atom_site_fract_y
_atom_site_fract_z
_atom_site_occupancy
C C       0.125523000000      -0.000100000000       0.156936000000       1.000000000000
C C       0.000000000000       0.000000000000       0.000000000000       1.000000000000
N N       0.296821000000       1.000721000000       0.437249000000       1.000000000000
O O       0.175758000000       0.940676000000       0.346765000000       1.000000000000
O O       0.370527000000       0.928821000000       0.571513000000       1.000000000000
O O       0.327570000000       0.122934000000       0.387621000000       1.000000000000
#END