data_image0
_chemical_formula_structural       C10N8O24H16
_chemical_formula_sum              "C10 N8 O24 H16"
_cell_length_a       9.43314936691512
_cell_length_b       9.433082590346384
_cell_length_c       6.752899648786386
_cell_angle_alpha    90.0165275679425
_cell_angle_beta     89.97209400285263
_cell_angle_gamma    89.99284316258735

_space_group_name_H-M_alt    "P 1"
_space_group_IT_number       1

loop_
  _space_group_symop_operation_xyz
  'x, y, z'

loop_
  _atom_site_type_symbol
  _atom_site_label
  _atom_site_symmetry_multiplicity
  _atom_site_fract_x
  _atom_site_fract_y
  _atom_site_fract_z
  _atom_site_occupancy
  C   C1        1.0  0.12042297930692182  0.06140032475648406  0.1249567853939907  1.0000
  C   C2        1.0  0.9379824092309579  0.11927872935447975  0.8739876143558312  1.0000
  C   C3        1.0  0.8802873912939552  0.9376864157668292  0.12607008868324357  1.0000
  C   C4        1.0  0.06179866468562939  0.8792876768744478  0.8735763409626864  1.0000
  C   C5        1.0  0.38004013542476933  0.5618419926830365  0.3736940994342013  1.0000
  C   C6        1.0  0.5616969182843877  0.620571072835924  0.6252807606067323  1.0000
  C   C7        1.0  0.6202075044882306  0.4382023196779522  0.3742144723439484  1.0000
  C   C8        1.0  0.43816461740473545  0.38036317246205725  0.6261223928127555  1.0000
  C   C9        1.0  0.00015316131495212291  0.9993836689272584  0.9996267877360692  1.0000
  C   C10       1.0  0.5000176266850104  0.5002084402014525  0.49974790849644724  1.0000
  N   N1        1.0  0.28491907194232885  0.9877253519636462  0.3718279294703538  1.0000
  N   N2        1.0  0.012503509334895371  0.2851096554795125  0.6289634516205024  1.0000
  N   N3        1.0  0.7153855471772919  0.013217087916236214  0.37204049254068466  1.0000
  N   N4        1.0  0.9863645906649737  0.7138509707786609  0.6285736605200796  1.0000
  N   N5        1.0  0.21441595880421252  0.4867830647691831  0.12897041001376897  1.0000
  N   N6        1.0  0.48700947071187356  0.7856577268616822  0.8714156626473353  1.0000
  N   N7        1.0  0.785433985386975  0.5131916726242263  0.12842447675428145  1.0000
  N   N8        1.0  0.5131960962851101  0.2157653492618349  0.8723181290735359  1.0000
  O   O1        1.0  0.15913681180746203  0.954800667872445  0.26656145830297834  1.0000
  O   O2        1.0  0.045165145266228904  0.15884159280154816  0.7335424459315271  1.0000
  O   O3        1.0  0.8420619528736665  0.04467947415533096  0.26758795070076363  1.0000
  O   O4        1.0  0.9537897525963732  0.8395470193061066  0.7345519100524803  1.0000
  O   O5        1.0  0.3403713240716411  0.4541208800203435  0.23415794901901424  1.0000
  O   O6        1.0  0.4547438652797953  0.6594179780504169  0.7665946335094402  1.0000
  O   O7        1.0  0.6593401121941697  0.5454717180671221  0.23364214996271065  1.0000
  O   O8        1.0  0.5449676329139197  0.3422509207705505  0.7677205017233303  1.0000
  O   O9        1.0  0.31304674796109033  0.8996577442293981  0.495481222946767  1.0000
  O   O10       1.0  0.10106391395294989  0.3139273715425806  0.5062448764250386  1.0000
  O   O11       1.0  0.6877303572953041  0.10169327702728512  0.4954420927780597  1.0000
  O   O12       1.0  0.8973485652954365  0.6853495709887822  0.5064485888074471  1.0000
  O   O13       1.0  0.18553783328729564  0.3979430874928371  0.00671134834077405  1.0000
  O   O14       1.0  0.3986960639336412  0.8137104048304538  0.9949194319325784  1.0000
  O   O15       1.0  0.813834853525138  0.6019881104211051  0.005869798030643172  1.0000
  O   O16       1.0  0.6016553779197935  0.18797017047151113  0.9955138118521124  1.0000
  O   O17       1.0  0.346288808922188  0.09527224560019754  0.32693099674506393  1.0000
  O   O18       1.0  0.9046882063326802  0.34615035685143647  0.673650815170248  1.0000
  O   O19       1.0  0.6530974223760242  0.906244334983638  0.3269704196306226  1.0000
  O   O20       1.0  0.09457698993151982  0.6530009100882428  0.6716427697491495  1.0000
  O   O21       1.0  0.153740757617831  0.5949774504345179  0.1727677183373632  1.0000
  O   O22       1.0  0.5944380431203844  0.8472906126036024  0.8265949549141137  1.0000
  O   O23       1.0  0.8467110588244298  0.4053886599476902  0.17227797152446744  1.0000
  O   O24       1.0  0.40612292194862765  0.15364002142087707  0.8272982417759914  1.0000
  H   H1        1.0  0.21221342726012984  0.08771623170381847  0.030930912258912716  1.0000
  H   H2        1.0  0.9103848818415058  0.21061298871520573  0.9681802411378012  1.0000
  H   H3        1.0  0.7882799884006146  0.9112100845031877  0.03266361574366924  1.0000
  H   H4        1.0  0.09003420248915359  0.7879555891387405  0.9673010736701528  1.0000
  H   H5        1.0  0.28871812417891246  0.5898856336463311  0.4676446790636569  1.0000
  H   H6        1.0  0.5883069974305475  0.7122316321612524  0.5312785778210061  1.0000
  H   H7        1.0  0.7116832367596315  0.4110395345636497  0.46825717426322316  1.0000
  H   H8        1.0  0.4117506453525529  0.28826325029967886  0.5327854736100018  1.0000
  H   H9        1.0  0.08587729021046428  0.15769070798724025  0.2038246444307892  1.0000
  H   H10       1.0  0.8424101245133728  0.083980821611513  0.7941835039350393  1.0000
  H   H11       1.0  0.9150283702367722  0.841479310294326  0.2048608583426482  1.0000
  H   H12       1.0  0.15685410034210095  0.914421035095064  0.7923151724488984  1.0000
  H   H13       1.0  0.41525687925244253  0.657073754435338  0.29299811692255845  1.0000
  H   H14       1.0  0.6577705797367099  0.5860311861418168  0.7044937574172399  1.0000
  H   H15       1.0  0.5853930101210145  0.34236380877601597  0.29452395966332146  1.0000
  H   H16       1.0  0.34188745181365265  0.41518781393078025  0.7048133544149197  1.0000
