data_image0
_chemical_formula_structural       C10N8O24H16
_chemical_formula_sum              "C10 N8 O24 H16"
_cell_length_a       9.38
_cell_length_b       9.38
_cell_length_c       6.7
_cell_angle_alpha    90.0
_cell_angle_beta     90.0
_cell_angle_gamma    90.0

_space_group_name_H-M_alt    "P 1"
_space_group_IT_number       1

loop_
  _space_group_symop_operation_xyz
  'x, y, z'

loop_
  _atom_site_type_symbol
  _atom_site_label
  _atom_site_symmetry_multiplicity
  _atom_site_fract_x
  _atom_site_fract_y
  _atom_site_fract_z
  _atom_site_occupancy
  C   C1        1.0  0.12125991318760287  0.0622791932608892  0.12756523633932476  1.0000
  C   C2        1.0  0.9377147474412961  0.12128094406057852  0.8719395800482572  1.0000
  C   C3        1.0  0.8787400727853806  0.9377208194805208  0.12756541585152767  1.0000
  C   C4        1.0  0.06228528247955255  0.8787190320815842  0.8719395602496053  1.0000
  C   C5        1.0  0.37874006267452415  0.562279212734596  0.37243464689331546  1.0000
  C   C6        1.0  0.5622854516733464  0.6212809484918321  0.6280604658116322  1.0000
  C   C7        1.0  0.6212599837561986  0.43772083109369186  0.37243479523734385  1.0000
  C   C8        1.0  0.43771459046176514  0.3787190786418831  0.6280603529364146  1.0000
  C   C9        1.0  0.9999999660266592  0.9999999587815974  0.999743221066176  1.0000
  C   C10       1.0  0.49999999205645285  0.500000040922481  0.5002567744780635  1.0000
  N   N1        1.0  0.2905724786715391  0.987319896120306  0.3766839183735145  1.0000
  N   N2        1.0  0.012686568894690093  0.29077120097763176  0.6230564123102188  1.0000
  N   N3        1.0  0.7094275895601497  0.012680205392574417  0.3766838685314656  1.0000
  N   N4        1.0  0.9873135437410354  0.7092289136243487  0.6230563646759089  1.0000
  N   N5        1.0  0.20942745947099192  0.48731973812819246  0.12331620245197426  1.0000
  N   N6        1.0  0.4873132695648461  0.7907712220886715  0.8769432267866728  1.0000
  N   N7        1.0  0.79057250390426  0.5126801293406492  0.12331628656951028  1.0000
  N   N8        1.0  0.5126865997655449  0.20922873593979635  0.8769434203423488  1.0000
  O   O1        1.0  0.16096030413580723  0.9540178054824512  0.2718988178776537  1.0000
  O   O2        1.0  0.0458976921600782  0.16094943762332914  0.7274388829880576  1.0000
  O   O3        1.0  0.8390394976737103  0.04598221406487349  0.2718990688222757  1.0000
  O   O4        1.0  0.95410247963409  0.8390504119867769  0.7274387612516149  1.0000
  O   O5        1.0  0.3390395079722835  0.4540178933300735  0.22810089599188554  1.0000
  O   O6        1.0  0.4541024487723799  0.6609494908124738  0.7725612935222963  1.0000
  O   O7        1.0  0.6609603476636129  0.5459820795338207  0.22810094809931436  1.0000
  O   O8        1.0  0.5458975547532211  0.3390505413221594  0.7725610675797175  1.0000
  O   O9        1.0  0.31825468268321194  0.8990578355537946  0.504175971716733  1.0000
  O   O10       1.0  0.10084306861533128  0.3184812345730578  0.4954553437605054  1.0000
  O   O11       1.0  0.6817451718037686  0.10094218216860172  0.5041762073837615  1.0000
  O   O12       1.0  0.8991568178052397  0.6815189331845489  0.4954554962731629  1.0000
  O   O13       1.0  0.18174533375449886  0.3990579475967061  0.9958240038905003  1.0000
  O   O14       1.0  0.3991569576540851  0.8184811135710903  0.004544772013724385  1.0000
  O   O15       1.0  0.8182545624377103  0.6009420572355845  0.9958241534902634  1.0000
  O   O16       1.0  0.6008429972085679  0.18151895660476466  0.004544570672544657  1.0000
  O   O17       1.0  0.3544162304023832  0.09473718368029785  0.328082341147635  1.0000
  O   O18       1.0  0.9054212924648717  0.3547456746535738  0.6720685317140569  1.0000
  O   O19       1.0  0.6455839825487473  0.9052628946318501  0.32808225276436526  1.0000
  O   O20       1.0  0.09457873140058927  0.6452543916782115  0.6720687654087205  1.0000
  O   O21       1.0  0.1455840048003021  0.5947371366026633  0.17191764777512672  1.0000
  O   O22       1.0  0.5945787193335921  0.8547454415486395  0.8279312684030344  1.0000
  O   O23       1.0  0.8544159551374365  0.40526287689495816  0.17191762133360447  1.0000
  O   O24       1.0  0.4054212924290931  0.1452544204744573  0.8279314814860029  1.0000
  H   H1        1.0  0.2134069455680539  0.08962206138942422  0.03455747632713305  1.0000
  H   H2        1.0  0.9105871632734311  0.2134865556023706  0.9649245480917286  1.0000
  H   H3        1.0  0.786593166664465  0.9103777045461028  0.03455754757469122  1.0000
  H   H4        1.0  0.08941280700250288  0.7865135108539127  0.9649246963695683  1.0000
  H   H5        1.0  0.28659320906838587  0.5896221061801961  0.46544248218995665  1.0000
  H   H6        1.0  0.5894127890326377  0.7134864422793308  0.5350752533467094  1.0000
  H   H7        1.0  0.7134068804088277  0.410377926008911  0.46544247033756936  1.0000
  H   H8        1.0  0.41058732242310186  0.28651346983701076  0.5350753077934739  1.0000
  H   H9        1.0  0.08552712883804962  0.15792173707816026  0.20752637303305405  1.0000
  H   H10       1.0  0.8419817954486976  0.08551712482315268  0.7922511500546872  1.0000
  H   H11       1.0  0.9144727158081352  0.8420780433950772  0.2075263188906987  1.0000
  H   H12       1.0  0.158018283208438  0.9144828554572957  0.7922508621911978  1.0000
  H   H13       1.0  0.4144727760533357  0.657921777702467  0.2924736201800793  1.0000
  H   H14       1.0  0.6580184043025186  0.5855171029534897  0.7077491677189608  1.0000
  H   H15       1.0  0.5855272109816138  0.34207835807268094  0.29247360718672577  1.0000
  H   H16       1.0  0.3419817203213323  0.4144829706499386  0.7077491718570259  1.0000
