# CIF file generated from CASTEP cell file
# https://gist.github.com/blake-armstrong/93facdde07a6e0a1ddb51857dd48e3f1
# Structure converted from CASTEP

data_structure

_cell_length_a    9.518964445724880
_cell_length_b    9.518964445724880
_cell_length_c    6.722543107281250
_cell_angle_alpha 90.000000000000000
_cell_angle_beta  90.000000000000000
_cell_angle_gamma 90.000000000000000

_symmetry_space_group_name_H-M 'P 1'
_symmetry_Int_Tables_number 1

loop_
_atom_site_label
_atom_site_type_symbol
_atom_site_fract_x
_atom_site_fract_y
_atom_site_fract_z
H1       H     0.211047413258275    0.086448268498057    0.034241242709036
H2       H     0.086060275216567    0.154190871957001    0.207552620356055
H3       H    -0.086448268498057    0.211047413258275   -0.034241242709036
H4       H    -0.154190871957001    0.086060275216567   -0.207552620356055
H5       H    -0.211047413258275   -0.086448268498057    0.034241242709036
H6       H    -0.086060275216567   -0.154190871957001    0.207552620356055
H7       H     0.086448268498057   -0.211047413258275   -0.034241242709036
H8       H     0.154190871957001   -0.086060275216567   -0.207552620356055
H9       H     0.711047413258273    0.413551731501943    0.465758757290964
H10      H     0.586060275216566    0.345809128042999    0.292447379643945
H11      H     0.413551731501943    0.288952586741725    0.534241242709036
H12      H     0.345809128042999    0.413939724783433    0.707552620356055
H13      H     0.288952586741725    0.586448268498057    0.465758757290964
H14      H     0.413939724783433    0.654190871956999    0.292447379643945
H15      H     0.586448268498057    0.711047413258273    0.534241242709036
H16      H     0.654190871956999    0.586060275216566    0.707552620356055
C1       C     0.120473570369207    0.059998381880462    0.127402035428364
C2       C     0.000000000000000    0.000000000000000    0.000000000000000
C3       C    -0.059998381880462    0.120473570369207   -0.127402035428364
C4       C    -0.120473570369207   -0.059998381880462    0.127402035428364
C5       C     0.059998381880462   -0.120473570369207   -0.127402035428364
C6       C     0.620473570369207    0.440001618119538    0.372597964571635
C7       C     0.500000000000000    0.500000000000000    0.500000000000000
C8       C     0.440001618119538    0.379526429630793    0.627402035428365
C9       C     0.379526429630793    0.559998381880463    0.372597964571635
C10      C     0.559998381880463    0.620473570369207    0.627402035428365
N1       N     0.288698384663002   -0.015613646030882    0.373876834706447
N2       N     0.015613646030882    0.288698384663002   -0.373876834706447
N3       N    -0.288698384663002    0.015613646030882    0.373876834706447
N4       N    -0.015613646030882   -0.288698384663002   -0.373876834706447
N5       N     0.788698384663000    0.515613646030882    0.126123165293553
N6       N     0.515613646030882    0.211301615337000    0.873876834706447
N7       N     0.211301615337000    0.484386353969118    0.126123165293553
N8       N     0.484386353969118    0.788698384663000    0.873876834706447
O1       O     0.159157606992779   -0.047315982951920    0.269842873921754
O2       O     0.315851312240731   -0.103537475394657    0.498400686590979
O3       O     0.351045435492589    0.089909079703041    0.326244619422631
O4       O     0.047315982951920    0.159157606992779   -0.269842873921754
O5       O    -0.159157606992779    0.047315982951920    0.269842873921754
O6       O    -0.047315982951920   -0.159157606992779   -0.269842873921754
O7       O     0.103537475394657    0.315851312240732   -0.498400686590979
O8       O    -0.089909079703041    0.351045435492589   -0.326244619422631
O9       O    -0.315851312240732    0.103537475394657    0.498400686590979
O10      O    -0.351045435492589   -0.089909079703041    0.326244619422631
O11      O    -0.103537475394657   -0.315851312240731   -0.498400686590979
O12      O     0.089909079703041   -0.351045435492589   -0.326244619422631
O13      O     0.659157606992779    0.547315982951918    0.230157126078246
O14      O     0.815851312240732    0.603537475394658    0.001599313409020
O15      O     0.851045435492590    0.410090920296958    0.173755380577369
O16      O     0.547315982951918    0.340842393007221    0.769842873921753
O17      O     0.340842393007221    0.452684017048080    0.230157126078246
O18      O     0.452684017048080    0.659157606992779    0.769842873921753
O19      O     0.603537475394658    0.184148687759269    0.998400686590980
O20      O     0.410090920296958    0.148954564507411    0.826244619422631
O21      O     0.184148687759269    0.396462524605343    0.001599313409020
O22      O     0.148954564507411    0.589909079703041    0.173755380577369
O23      O     0.396462524605343    0.815851312240732    0.998400686590980
O24      O     0.589909079703041    0.851045435492590    0.826244619422631
