data_MNPYDO.b3lyp.6-311G**.dma4.-107.7025.1.4462
_audit_creation_method 'generated by cspy2.0'
_cell_length_a 20.5741
_cell_length_b 7.0632
_cell_length_c 4.871
_cell_angle_alpha 90.0
_cell_angle_beta 90.0
_cell_angle_gamma 90.0
loop_
_symmetry_equiv_pos_site_id
_symmetry_equiv_pos_as_xyz
1 +x,+y,+z
loop_
_atom_site_label
_atom_site_type_symbol
_atom_site_fract_x
_atom_site_fract_y
_atom_site_fract_z
_atom_site_occupancy
N1 N       0.093008320000       0.109910240000       0.118346210000       1.000000000000
N2 N       0.117543100000       0.615542040000      -0.316481870000       1.000000000000
N3 N       0.895442580000       0.609910260000       0.637747380000       1.000000000000
N4 N       0.870907730000       1.115542060000       1.072575630000       1.000000000000
N5 N       0.395442550000       0.827781300000       0.618346160000       1.000000000000
N6 N       0.370907740000       0.322149460000       0.183517890000       1.000000000000
N7 N       0.593008310000       0.327781230000       0.137747300000       1.000000000000
N8 N       0.617543150000      -0.177850550000       0.572575360000       1.000000000000
C1 C       0.143017300000       0.123707060000      -0.064108520000       1.000000000000
C2 C       0.153754010000       0.285510410000      -0.213790610000       1.000000000000
C3 C       0.111922800000       0.435739270000      -0.168631580000       1.000000000000
C4 C       0.061957520000       0.423545750000       0.022160680000       1.000000000000
C5 C       0.053143300000       0.258728230000       0.165296750000       1.000000000000
C6 C       0.212596970000       0.283913410000      -0.398155440000       1.000000000000
C7 C       0.845433570000       0.623707070000       0.820201950000       1.000000000000
C8 C       0.834696840000       0.785510420000       0.969884080000       1.000000000000
C9 C       0.876528050000       0.935739280000       0.924725260000       1.000000000000
C10 C       0.926493370000       0.923545770000       0.733933190000       1.000000000000
C11 C       0.935307610000       0.758728240000       0.590797040000       1.000000000000
C12 C       0.775853830000       0.783913410000       1.154248720000       1.000000000000
C13 C       0.345433550000       0.813984440000       0.435891450000       1.000000000000
C14 C       0.334696840000       0.652181090000       0.286209310000       1.000000000000
C15 C       0.376528040000       0.501952240000       0.331368240000       1.000000000000
C16 C       0.426493350000       0.514145800000       0.522160470000       1.000000000000
C17 C       0.435307580000       0.678963350000       0.665296620000       1.000000000000
C18 C       0.275853840000       0.653778030000       0.101844500000       1.000000000000
C19 C       0.643017330000       0.313984430000       0.320201930000       1.000000000000
C20 C       0.653754050000       0.152181090000       0.469884010000       1.000000000000
C21 C       0.611922840000       0.001952220000       0.424725070000       1.000000000000
C22 C       0.561957520000       0.014145730000       0.233932920000       1.000000000000
C23 C       0.553143270000       0.178963230000       0.090796850000       1.000000000000
C24 C       0.712597060000       0.153778110000       0.654248730000       1.000000000000
O1 O       0.083458810000      -0.046605780000       0.249748490000       1.000000000000
O2 O       0.150599390000       0.618709460000      -0.523604580000       1.000000000000
O3 O       0.088843060000       0.752295140000      -0.228863380000       1.000000000000
O4 O       0.904992110000       0.453394210000       0.506345050000       1.000000000000
O5 O       0.837851410000       1.118709490000       1.279698220000       1.000000000000
O6 O       0.899607800000       1.252295180000       0.984957320000       1.000000000000
O7 O       0.404992070000       0.984297350000       0.749748500000       1.000000000000
O8 O       0.337851430000       0.318981990000      -0.023604800000       1.000000000000
O9 O       0.399607800000       0.185396370000       0.271136290000       1.000000000000
O10 O       0.583458780000       0.484297250000       0.006345050000       1.000000000000
O11 O       0.650599500000      -0.181017960000       0.779698000000       1.000000000000
O12 O       0.588843110000      -0.314603660000       0.484956940000       1.000000000000
H1 H       0.173831390000      -0.006572150000      -0.088857800000       1.000000000000
H2 H       0.026149340000       0.545259020000       0.034772000000       1.000000000000
H3 H       0.005966940000       0.255650720000       0.302738790000       1.000000000000
H4 H       0.243205770000       0.164904640000      -0.347076670000       1.000000000000
H5 H       0.186834960000       0.325102800000      -0.598427250000       1.000000000000
H6 H       0.239659350000       0.390399270000      -0.361456890000       1.000000000000
H7 H       0.814619470000       0.493427860000       0.844951070000       1.000000000000
H8 H       0.962301560000       1.045259060000       0.721322040000       1.000000000000
H9 H       0.982483990000       0.755650720000       0.453355160000       1.000000000000
H10 H       0.745245040000       0.664904620000       1.103169780000       1.000000000000
H11 H       0.801615810000       0.825102820000       1.354520630000       1.000000000000
H12 H       0.748791480000       0.890399280000       1.117550130000       1.000000000000
H13 H       0.314619450000       0.944263620000       0.411142230000       1.000000000000
H14 H       0.462301550000       0.392432530000       0.534771720000       1.000000000000
H15 H       0.482483960000       0.682040900000       0.802738630000       1.000000000000
H16 H       0.245245050000       0.772786800000       0.152923340000       1.000000000000
H17 H       0.301615840000       0.612588620000      -0.098427350000       1.000000000000
H18 H       0.248791480000       0.547292140000       0.138543010000       1.000000000000
H19 H       0.673831420000       0.444263640000       0.344951140000       1.000000000000
H20 H       0.526149330000      -0.107567570000       0.221321680000       1.000000000000
H21 H       0.505966890000       0.182040730000      -0.046645090000       1.000000000000
H22 H       0.743205840000       0.272786890000       0.603169890000       1.000000000000
H23 H       0.686835080000       0.112588710000       0.854520590000       1.000000000000
H24 H       0.739659420000       0.047292250000       0.617550120000       1.000000000000
#END