data_C6H6N2O3
_audit_creation_method 'chmpy python library version 1.0a1'
_cell_length_a 21.450285
_cell_length_b 5.943712
_cell_length_c 4.751604
_cell_angle_alpha 90.0
_cell_angle_beta 90.0
_cell_angle_gamma 90.0
loop_
_symmetry_equiv_pos_site_id
_symmetry_equiv_pos_as_xyz
                   1 +x,+y,+z
                   2 -x,1/2+y,1/2-z
                   3 1/2-x,-y,1/2+z
                   4 1/2+x,1/2-y,-z
loop_
_atom_site_label
_atom_site_type_symbol
_atom_site_fract_x
_atom_site_fract_y
_atom_site_fract_z
_atom_site_occupancy
N N       0.159980000000      -0.043199000000      -0.010961000000       1.000000000000
C C       0.184494000000       0.113555000000       0.796642000000       1.000000000000
C C       0.152776000000       0.309658000000       0.727113000000       1.000000000000
C C       0.093709000000       0.351581000000       0.856039000000       1.000000000000
C C       0.069850000000       0.194881000000       0.051803000000       1.000000000000
C C       0.102179000000       0.001801000000       0.117196000000       1.000000000000
O O       0.189779000000       0.776799000000       0.046491000000       1.000000000000
C C       0.180626000000       0.474492000000       0.522704000000       1.000000000000
N N       0.056714000000       0.554290000000       0.795719000000       1.000000000000
O O       0.067057000000       0.664281000000       0.574007000000       1.000000000000
O O       0.015295000000       0.614043000000       0.968907000000       1.000000000000
H H       0.230074000000       0.076246000000       0.706944000000       1.000000000000
H H       0.024356000000       0.228853000000       0.147582000000       1.000000000000
H H       0.083876000000      -0.121839000000       0.265380000000       1.000000000000
H H       0.228800000000       0.428905000000       0.463054000000       1.000000000000
H H       0.152491000000       0.484514000000       0.328042000000       1.000000000000
H H       0.181534000000       0.645921000000       0.613501000000       1.000000000000
#END