data_image0
_chemical_formula_structural       N4C20O4C4N4O8H24
_chemical_formula_sum              "N8 C24 O12 H24"
_cell_length_a       21.947086613466166
_cell_length_b       6.246678323673372
_cell_length_c       4.966704787314636
_cell_angle_alpha    90.07317203529416
_cell_angle_beta     89.9549581837267
_cell_angle_gamma    90.06725170507993

_space_group_name_H-M_alt    "P 1"
_space_group_IT_number       1

loop_
  _space_group_symop_operation_xyz
  'x, y, z'

loop_
  _atom_site_type_symbol
  _atom_site_label
  _atom_site_symmetry_multiplicity
  _atom_site_fract_x
  _atom_site_fract_y
  _atom_site_fract_z
  _atom_site_occupancy
  N   N1        1.0  0.1596410610387719  0.03127074953497418  0.007408922506012107  1.0000
  N   N2        1.0  0.6594074033851032  0.46963457670647835  0.9933947173120412  1.0000
  N   N3        1.0  0.8405521440069855  0.5294337146836651  0.4935489345131077  1.0000
  N   N4        1.0  0.3404559839893439  0.9698838865578879  0.5057679482554355  1.0000
  C   C1        1.0  0.18406319500280402  0.1712899666255985  0.8258311785788369  1.0000
  C   C2        1.0  0.6836742952672537  0.32939737204110653  0.17472961865696435  1.0000
  C   C3        1.0  0.8162431693857268  0.6701514996588164  0.6748098769056746  1.0000
  C   C4        1.0  0.3161915115873655  0.8294853666280004  0.3239456393577845  1.0000
  C   C5        1.0  0.15555633219267792  0.3601418896630124  0.7511361951599638  1.0000
  C   C6        1.0  0.6550565065518618  0.14049320964987452  0.2491539234923369  1.0000
  C   C7        1.0  0.8449153112321355  0.8592906797313444  0.7488195716697108  1.0000
  C   C8        1.0  0.34463909142139976  0.6401264083936419  0.2503671689019473  1.0000
  C   C9        1.0  0.09889921720878066  0.4016769324884242  0.8732352532812263  1.0000
  C   C10       1.0  0.5983642886364964  0.09925111936426938  0.12730142928768276  1.0000
  C   C11       1.0  0.9016118116866223  0.9002413291899061  0.6267804322286491  1.0000
  C   C12       1.0  0.4010584980636672  0.5984520927401933  0.3740287145703905  1.0000
  C   C13       1.0  0.07441918439603924  0.2604569605150989  0.06152595385290395  1.0000
  C   C14       1.0  0.5739124707750392  0.24113829363102174  0.940136282172036  1.0000
  C   C15       1.0  0.9260499205779353  0.7579990689681473  0.4393801511958569  1.0000
  C   C16       1.0  0.4254113429529279  0.7401656437058316  0.5623714285130705  1.0000
  C   C17       1.0  0.10498129619257561  0.07642696577563668  0.12749147566288435  1.0000
  C   C18       1.0  0.6046627487311981  0.42510016075298235  0.8741114870515786  1.0000
  C   C19       1.0  0.8952926242086898  0.5738099245884137  0.37379076784059195  1.0000
  C   C20       1.0  0.3948749784386509  0.9246828908436412  0.6272078659829871  1.0000
  O   O1        1.0  0.18779469202917848  0.8584790487444443  0.06615281044322302  1.0000
  O   O2        1.0  0.6878919005527673  0.6420409583046847  0.9345260418995671  1.0000
  O   O3        1.0  0.8121397079626516  0.3566858118603962  0.4349904347114401  1.0000
  O   O4        1.0  0.312300504264707  0.14311521109054745  0.5633517777618414  1.0000
  C   C21       1.0  0.18867591766584932  0.5026382554956671  0.5599323152455696  1.0000
  C   C22       1.0  0.6881971233287941  0.9975156392017054  0.43907694121008506  1.0000
  C   C23       1.0  0.811733163402212  0.003000699936402124  0.9383676642334565  1.0000
  C   C24       1.0  0.3115862427248841  0.4971080905799802  0.059306490689882425  1.0000
  N   N5        1.0  0.06385141975807256  0.5908220303796594  0.8112545873901837  1.0000
  N   N6        1.0  0.5632071920837912  0.9098807718790319  0.188695860764819  1.0000
  N   N7        1.0  0.9367417743270114  0.08995757556998198  0.6878245508788735  1.0000
  N   N8        1.0  0.43602765370937335  0.40869189592692545  0.3133412819634403  1.0000
  O   O5        1.0  0.0780103067735245  0.6951828449630603  0.6097627705479298  1.0000
  O   O6        1.0  0.5772426954822649  0.8050666499178927  0.38976508761885104  1.0000
  O   O7        1.0  0.9228024956648495  0.19501078645223993  0.8892295040501842  1.0000
  O   O8        1.0  0.4221606072249295  0.30372859833134047  0.11177676095404061  1.0000
  O   O9        1.0  0.021338592874265677  0.6388205725273997  0.9625776129960377  1.0000
  O   O10       1.0  0.5207407379478917  0.8619979750245748  0.03716046652253941  1.0000
  O   O11       1.0  0.9790950861376242  0.13767684408921477  0.5354130487173582  1.0000
  O   O12       1.0  0.4782492256435598  0.36086235420821366  0.46593185314362334  1.0000
  H   H1        1.0  0.22869246425641696  0.12529398033730418  0.7440892882724527  1.0000
  H   H2        1.0  0.7283406101861726  0.3753105712356193  0.25628356461053536  1.0000
  H   H3        1.0  0.7715835107037337  0.6245155340172187  0.7567961009183968  1.0000
  H   H4        1.0  0.27171434614129514  0.8756505271386067  0.24124013069658473  1.0000
  H   H5        1.0  0.03048797437069108  0.29460965227446023  0.1550502256571052  1.0000
  H   H6        1.0  0.5298599469763853  0.20743189484179558  0.8475671482067969  1.0000
  H   H7        1.0  0.9700632766446525  0.7915879599047045  0.34614158606978973  1.0000
  H   H8        1.0  0.4692031379931753  0.7060208015174736  0.6566877696424964  1.0000
  H   H9        1.0  0.08908158271126303  0.9577601469917033  0.2726186466910051  1.0000
  H   H10       1.0  0.5888475766428627  0.5442087639369371  0.72965356936655  1.0000
  H   H11       1.0  0.9111365487343771  0.45437003077440996  0.2293857185408031  1.0000
  H   H12       1.0  0.41063490012176596  0.043921865057654524  0.7721916440680614  1.0000
  H   H13       1.0  0.2332116292085059  0.43172641969371967  0.511551594267747  1.0000
  H   H14       1.0  0.7325309653854634  0.0694879536743123  0.48907261956573483  1.0000
  H   H15       1.0  0.7673103501492204  0.9316010467337628  0.9880823358056832  1.0000
  H   H16       1.0  0.26735449779057424  0.5691007645193774  0.008672253336594913  1.0000
  H   H17       1.0  0.16294699572592264  0.530401058317965  0.37303731845897453  1.0000
  H   H18       1.0  0.662360452049058  0.9669767026340765  0.6252004747604553  1.0000
  H   H19       1.0  0.8374942276239461  0.033796040977594866  0.12452728075659471  1.0000
  H   H20       1.0  0.3375921696512124  0.46664926863361506  0.8735955272888879  1.0000
  H   H21       1.0  0.19561416235279658  0.6617061849986066  0.6521259436037504  1.0000
  H   H22       1.0  0.6955578477827872  0.8395198890175647  0.3446212446649788  1.0000
  H   H23       1.0  0.8045971834234692  0.16084320050968431  0.8436995685589042  1.0000
  H   H24       1.0  0.30406671414669156  0.33920487066462646  0.15337395560036016  1.0000
