data_cif

_audit_creation_method             'generated by GULP'

_symmetry_space_group_name_H-M     'P 21 21 21      '
_symmetry_Int_Tables_number        19
_symmetry_cell_setting             Orthorhombic

_cell_length_a                      22.159599
_cell_length_b                       6.394784
_cell_length_c                       4.884976
_cell_angle_alpha                   90.000000
_cell_angle_beta                    90.000000
_cell_angle_gamma                   90.000000

loop_
_atom_site_label
_atom_site_fract_x
_atom_site_fract_y
_atom_site_fract_z
_atom_site_occupancy
  N6          0.14789      0.03519      0.04389  1.0000
  C3          0.17783      0.15248      0.84790  1.0000
  C3          0.15367      0.34262      0.75358  1.0000
  C3          0.09767      0.41268      0.86000  1.0000
  C3          0.06928      0.29523      0.06733  1.0000
  C3          0.09539      0.10948      0.16222  1.0000
  O2          0.17149      0.87342      0.13196  1.0000
  C1          0.19038      0.46813      0.54713  1.0000
  N4          0.06804      0.60884      0.76267  1.0000
  O2          0.07204      0.65213      0.51961  1.0000
  O2          0.03202      0.69393      0.91716  1.0000
  H7          0.22005      0.08957      0.77089  1.0000
  H5          0.02717      0.34852      0.15780  1.0000
  H7          0.07526      0.01751      0.32568  1.0000
  H8          0.23670      0.40953      0.53129  1.0000
  H8          0.17032      0.45998      0.34257  1.0000
  H8          0.19305      0.63322      0.60668  1.0000
