data_image0
_chemical_formula_structural       N4C20O4C4N4O8H24
_chemical_formula_sum              "N8 C24 O12 H24"
_cell_length_a       21.359
_cell_length_b       6.111
_cell_length_c       5.132
_cell_angle_alpha    90.0
_cell_angle_beta     90.0
_cell_angle_gamma    90.0

_space_group_name_H-M_alt    "P 1"
_space_group_IT_number       1

loop_
  _space_group_symop_operation_xyz
  'x, y, z'

loop_
  _atom_site_type_symbol
  _atom_site_label
  _atom_site_symmetry_multiplicity
  _atom_site_fract_x
  _atom_site_fract_y
  _atom_site_fract_z
  _atom_site_occupancy
  N   N1        1.0  0.15484873085161516  0.04858790733410209  0.0007136677315934478  1.0000
  N   N2        1.0  0.6548486084288457  0.45141130153431896  0.9992872466792  1.0000
  N   N3        1.0  0.8451513322113359  0.5485889530715121  0.49928675290456676  1.0000
  N   N4        1.0  0.34515126568572535  0.9514138889590851  0.5007129422440451  1.0000
  C   C1        1.0  0.17945268500223702  0.18131452461607558  0.8114036627423947  1.0000
  C   C2        1.0  0.6794529063497622  0.31868453484175835  0.18859705130735382  1.0000
  C   C3        1.0  0.8205471865729903  0.6813152883271929  0.6885968351602315  1.0000
  C   C4        1.0  0.3205475881269655  0.8186852195072417  0.31140578737482993  1.0000
  C   C5        1.0  0.15207990587475523  0.37774718261892754  0.736591345520468  1.0000
  C   C6        1.0  0.6520803044074859  0.12225286503174498  0.263410513138553  1.0000
  C   C7        1.0  0.8479199523048283  0.8777469147822815  0.7634101631747566  1.0000
  C   C8        1.0  0.3479202557405776  0.6222532045591694  0.23659273113706394  1.0000
  C   C9        1.0  0.09610697666955456  0.4357270825594495  0.8660127078003889  1.0000
  C   C10       1.0  0.5961070381465118  0.06427364408533116  0.13398758504714686  1.0000
  C   C11       1.0  0.9038929454174209  0.9357269793965415  0.6339876261550069  1.0000
  C   C12       1.0  0.403893316031466  0.5642729255488349  0.36601243469048983  1.0000
  C   C13       1.0  0.07165256105204758  0.30201153174673434  0.06214619544329091  1.0000
  C   C14       1.0  0.571652706255313  0.19798847940681696  0.937852648050592  1.0000
  C   C15       1.0  0.9283473496909812  0.8020109756484699  0.4378539087426323  1.0000
  C   C16       1.0  0.4283472543776455  0.6979869025835863  0.5621480593749489  1.0000
  C   C17       1.0  0.10114357850643488  0.11015048116561785  0.12845393056347776  1.0000
  C   C18       1.0  0.6011431408684768  0.3898509065289355  0.8715442814726377  1.0000
  C   C19       1.0  0.8988566055598103  0.6101499220478991  0.37154495601829274  1.0000
  C   C20       1.0  0.3988563343077313  0.8898491535767948  0.6284516918984482  1.0000
  O   O1        1.0  0.18225762679739396  0.8667062312009975  0.059083087023249686  1.0000
  O   O2        1.0  0.6822572988722608  0.6332926572341414  0.9409166581541277  1.0000
  O   O3        1.0  0.8177426447619106  0.3667071521606756  0.44091694325732367  1.0000
  O   O4        1.0  0.31774202858709444  0.13329485392314372  0.5590836516135295  1.0000
  C   C21       1.0  0.1860978364329135  0.5117772674649028  0.5374471984904061  1.0000
  C   C22       1.0  0.6860981929349937  0.9882213933507694  0.4625546913559805  1.0000
  C   C23       1.0  0.8139019970552942  0.011777827327576417  0.9625532175455132  1.0000
  C   C24       1.0  0.3139023592386824  0.48822328260968934  0.03744817266184222  1.0000
  N   N5        1.0  0.061917906133718593  0.6349079658785111  0.8056193068024201  1.0000
  N   N6        1.0  0.5619177286727386  0.8650920027242018  0.19438042344662618  1.0000
  N   N7        1.0  0.9380820337819068  0.1349085141170357  0.6943801623160456  1.0000
  N   N8        1.0  0.4380822397223745  0.3650927550059504  0.3056185148840105  1.0000
  O   O5        1.0  0.07560654700940928  0.7363663377961313  0.6030205379666754  1.0000
  O   O6        1.0  0.5756064314120856  0.7636331262960965  0.3969789444690447  1.0000
  O   O7        1.0  0.9243935086934634  0.2363660754470564  0.8969789757771748  1.0000
  O   O8        1.0  0.42439326887669987  0.2636337070189188  0.10302069422458189  1.0000
  O   O9        1.0  0.01996699748405943  0.6950484274832122  0.9585183352398019  1.0000
  O   O10       1.0  0.5199668591439496  0.8049504516115236  0.04148214007077761  1.0000
  O   O11       1.0  0.9800331879978448  0.19504909103096055  0.5414819777670884  1.0000
  O   O12       1.0  0.480032823540592  0.30495224327195825  0.4585188195583132  1.0000
  H   H1        1.0  0.22316737196363248  0.12270051049187765  0.7266515992321799  1.0000
  H   H2        1.0  0.7231679933460526  0.37730022981020644  0.2733501603189448  1.0000
  H   H3        1.0  0.7768322902917706  0.6226999593424601  0.7733490696547414  1.0000
  H   H4        1.0  0.2768331736041206  0.8772993597305508  0.22665258378287875  1.0000
  H   H5        1.0  0.028926422149408174  0.3478615154146795  0.1626221067668248  1.0000
  H   H6        1.0  0.5289263761255018  0.15213906255707388  0.837377767355883  1.0000
  H   H7        1.0  0.9710733145297387  0.8478609391875008  0.33737819342101066  1.0000
  H   H8        1.0  0.47107382434992867  0.6521381789916776  0.6626215833015845  1.0000
  H   H9        1.0  0.08523530865233661  0.9981797529067808  0.2787465312882092  1.0000
  H   H10       1.0  0.585234908898525  0.5018219206156117  0.7212507335665495  1.0000
  H   H11       1.0  0.9147649304000374  0.49817879835291207  0.221251856944827  1.0000
  H   H12       1.0  0.41476439188465  0.0018184774443124358  0.7787442425533873  1.0000
  H   H13       1.0  0.2302099678586753  0.43119687991528666  0.48587497730752766  1.0000
  H   H14       1.0  0.7302102438810558  0.06880523192709477  0.5141243537293463  1.0000
  H   H15       1.0  0.769789980820492  0.931196247103131  0.014124931130174323  1.0000
  H   H16       1.0  0.2697901936210466  0.5688021460266035  0.9858743925219287  1.0000
  H   H17       1.0  0.15819299072487547  0.5388125353970541  0.36145977687351183  1.0000
  H   H18       1.0  0.6581925056348116  0.961187829172059  0.6385409669580459  1.0000
  H   H19       1.0  0.8418071773563157  0.03881197939738881  0.13854011362406607  1.0000
  H   H20       1.0  0.3418067887954947  0.4611873278825707  0.8614598893012877  1.0000
  H   H21       1.0  0.19606214553769952  0.6752908941005746  0.61615898327783  1.0000
  H   H22       1.0  0.6960620057469609  0.8247078994268632  0.38383942585422304  1.0000
  H   H23       1.0  0.8039378584588035  0.17529126556670557  0.8838403704288016  1.0000
  H   H24       1.0  0.3039378150664447  0.32470956109637966  0.11615807340768701  1.0000
