data_MELAMI02.b3lyp.6-311G**.dma4.-101.1646.1.5305
_audit_creation_method 'generated by cspy2.0'
_cell_length_a 10.7016
_cell_length_b 7.3578
_cell_length_c 7.3363
_cell_angle_alpha 90.0
_cell_angle_beta 108.649
_cell_angle_gamma 90.0
loop_
_symmetry_equiv_pos_site_id
_symmetry_equiv_pos_as_xyz
1 +x,+y,+z
loop_
_atom_site_label
_atom_site_type_symbol
_atom_site_fract_x
_atom_site_fract_y
_atom_site_fract_z
_atom_site_occupancy
C1 C       0.174094770000       0.649298410000       0.074282710000       1.000000000000
C2 C       0.119048470000       0.516418540000       0.315436470000       1.000000000000
C3 C       0.064541730000       0.808839430000       0.237917590000       1.000000000000
C4 C       0.821267250000       0.351651990000       0.919052250000       1.000000000000
C5 C       0.878717610000       0.495005420000       0.685520410000       1.000000000000
C6 C       0.945780410000       0.207287630000       0.767223140000       1.000000000000
C7 C       0.332589320000       0.149298410000       0.935288330000       1.000000000000
C8 C       0.387635620000       0.016418540000       0.694134570000       1.000000000000
C9 C       0.442142370000       0.308839430000       0.771653450000       1.000000000000
C10 C       0.685416840000       0.851651990000       0.090518800000       1.000000000000
C11 C       0.627966470000       0.995005430000       0.324050640000       1.000000000000
C12 C       0.560903670000       0.707287620000       0.242347890000       1.000000000000
N1 N       0.226429200000       0.640219220000      -0.068457910000       1.000000000000
N2 N       0.118912470000       0.371015690000       0.425984930000       1.000000000000
N3 N       0.013469310000       0.969664570000       0.272024440000       1.000000000000
N4 N       0.059135550000       0.667303570000       0.349513700000       1.000000000000
N5 N       0.118685880000       0.808527590000       0.096886700000       1.000000000000
N6 N       0.179933660000       0.500186300000       0.182564080000       1.000000000000
N7 N       0.762897640000       0.352275290000       1.055367700000       1.000000000000
N8 N       0.875437420000       0.642410170000       0.576171680000       1.000000000000
N9 N       1.006671540000       0.052857140000       0.738323830000       1.000000000000
N10 N       0.948065250000       0.351400620000       0.657256200000       1.000000000000
N11 N       0.886073290000       0.199015510000       0.901768930000       1.000000000000
N12 N       0.811674190000       0.502092560000       0.811468390000       1.000000000000
N13 N       0.280254880000       0.140219220000       1.078028950000       1.000000000000
N14 N       0.387771620000      -0.128984320000       0.583586110000       1.000000000000
N15 N       0.493214780000       0.469664570000       0.737546610000       1.000000000000
N16 N       0.447548530000       0.167303560000       0.660057340000       1.000000000000
N17 N       0.387998190000       0.308527580000       0.912684340000       1.000000000000
N18 N       0.326750430000       0.000186300000       0.827006970000       1.000000000000
N19 N       0.743786450000       0.852275290000      -0.045796650000       1.000000000000
N20 N       0.631246660000       1.142410170000       0.433399360000       1.000000000000
N21 N       0.500012550000       0.552857130000       0.271247210000       1.000000000000
N22 N       0.558618840000       0.851400610000       0.352314840000       1.000000000000
N23 N       0.620610800000       0.699015510000       0.107802110000       1.000000000000
N24 N       0.695009910000       1.002092560000       0.198102660000       1.000000000000
H1 H       0.243178800000       0.748270730000      -0.120097310000       1.000000000000
H2 H       0.269625890000       0.535602010000      -0.078961260000       1.000000000000
H3 H       0.151355300000       0.268476980000       0.394394320000       1.000000000000
H4 H       0.064576080000       0.369489340000       0.503971050000       1.000000000000
H5 H      -0.012460340000       1.047012600000       0.168270820000       1.000000000000
H6 H      -0.044965650000       0.959870130000       0.336432700000       1.000000000000
H7 H       0.749529470000       0.241669750000       1.105411640000       1.000000000000
H8 H       0.713591220000       0.451953480000       1.061946700000       1.000000000000
H9 H       0.836396270000       0.740674540000       0.604279130000       1.000000000000
H10 H       0.933072880000       0.651193460000       0.503575010000       1.000000000000
H11 H       1.033195540000      -0.023832700000       0.842585830000       1.000000000000
H12 H       1.067577610000       0.070021100000       0.679330270000       1.000000000000
H13 H       0.263505280000       0.248270730000       1.129668340000       1.000000000000
H14 H       0.237058190000       0.035602010000       1.088532310000       1.000000000000
H15 H       0.355328790000      -0.231523020000       0.615176740000       1.000000000000
H16 H       0.442108020000      -0.130510660000       0.505600000000       1.000000000000
H17 H       0.519144430000       0.547012600000       0.841300220000       1.000000000000
H18 H       0.551649730000       0.459870130000       0.673138340000       1.000000000000
H19 H       0.757154620000       0.741669750000      -0.095840600000       1.000000000000
H20 H       0.793092860000       0.951953480000      -0.052375650000       1.000000000000
H21 H       0.670287810000       1.240674530000       0.405291910000       1.000000000000
H22 H       0.573611210000       1.151193450000       0.505996040000       1.000000000000
H23 H       0.473488540000       0.476167300000       0.166985210000       1.000000000000
H24 H       0.439106490000       0.570021090000       0.330240760000       1.000000000000
#END