data_cif

_audit_creation_method             'generated by GULP'

_symmetry_space_group_name_H-M     'P 1 21/A 1      '
_symmetry_Int_Tables_number        14
_symmetry_cell_setting             Monoclinic  

_cell_length_a                      10.195859
_cell_length_b                       6.942330
_cell_length_c                       6.964845
_cell_angle_alpha                   90.000000
_cell_angle_beta                   109.337009
_cell_angle_gamma                   90.000000

loop_
_atom_site_label
_atom_site_fract_x
_atom_site_fract_y
_atom_site_fract_z
_atom_site_occupancy
  C2          0.16023      0.65523      0.06195  1.0000
  C2          0.12793      0.52031      0.31770  1.0000
  C2          0.07351      0.81526      0.25257  1.0000
  N4          0.19674      0.64439      0.89908  1.0000
  N4          0.13022      0.36611      0.42619  1.0000
  N4          0.01346      0.97197      0.28759  1.0000
  N1          0.07078      0.67038      0.36758  1.0000
  N1          0.11225      0.82158      0.09280  1.0000
  N1          0.17466      0.49780      0.16687  1.0000
  H3          0.23447      0.77076      0.86686  1.0000
  H3          0.25401      0.52580      0.89884  1.0000
  H3          0.12837      0.24604      0.34461  1.0000
  H3          0.05286      0.37441      0.48693  1.0000
  H3          0.96936      0.04304      0.15473  1.0000
  H3          0.94702      0.93563      0.36123  1.0000
