data_C3H6N6
_audit_creation_method 'chmpy python library version 1.0a1'
_cell_length_a 10.294604
_cell_length_b 7.572094
_cell_length_c 6.864467
_cell_angle_alpha 90.0
_cell_angle_beta 120.240488
_cell_angle_gamma 90.0
loop_
_symmetry_equiv_pos_site_id
_symmetry_equiv_pos_as_xyz
                   1 -x,-y,-z
                   2 +x,+y,+z
                   3 1/2-x,1/2+y,-z
                   4 1/2+x,1/2-y,+z
loop_
_atom_site_label
_atom_site_type_symbol
_atom_site_fract_x
_atom_site_fract_y
_atom_site_fract_z
_atom_site_occupancy
C C       0.169236000000       0.658989000000       0.071007000000       1.000000000000
C C       0.129084000000       0.508942000000       0.324057000000       1.000000000000
C C       0.072782000000       0.802704000000       0.263343000000       1.000000000000
N N       0.210871000000       0.659507000000       0.906497000000       1.000000000000
N N       0.124374000000       0.351884000000       0.425563000000       1.000000000000
N N       0.008621000000       0.954293000000       0.295728000000       1.000000000000
N N       0.073681000000       0.653760000000       0.370289000000       1.000000000000
N N       0.120997000000       0.811325000000       0.114061000000       1.000000000000
N N       0.179016000000       0.505748000000       0.177139000000       1.000000000000
H H       0.250505000000       0.775284000000       0.873666000000       1.000000000000
H H       0.260540000000       0.548306000000       0.883844000000       1.000000000000
H H       0.119013000000       0.230506000000       0.352939000000       1.000000000000
H H       0.056792000000       0.351877000000       0.497890000000       1.000000000000
H H       0.965365000000       0.042221000000       0.161710000000       1.000000000000
H H       0.929247000000       0.937779000000       0.345653000000       1.000000000000
#END