data_image0
_chemical_formula_structural       C12N24H24
_chemical_formula_sum              "C12 N24 H24"
_cell_length_a       10.537
_cell_length_b       7.477
_cell_length_c       7.275
_cell_angle_alpha    90.0
_cell_angle_beta     112.15
_cell_angle_gamma    90.0

_space_group_name_H-M_alt    "P 1"
_space_group_IT_number       1

loop_
  _space_group_symop_operation_xyz
  'x, y, z'

loop_
  _atom_site_type_symbol
  _atom_site_label
  _atom_site_symmetry_multiplicity
  _atom_site_fract_x
  _atom_site_fract_y
  _atom_site_fract_z
  _atom_site_occupancy
  C   C1        1.0  0.17540080452694565  0.6547346836613538  0.07442486966071298  1.0000
  C   C2        1.0  0.3245992124397646  0.15473461241906428  0.9255753604019751  1.0000
  C   C3        1.0  0.8247599672730221  0.3451980516744917  0.9255208419041652  1.0000
  C   C4        1.0  0.6752401793192251  0.8451983015487036  0.0744790474217985  1.0000
  C   C5        1.0  0.11873919829487176  0.5157145038515822  0.3128637845594075  1.0000
  C   C6        1.0  0.38126076187022667  0.015714616044830057  0.6871363908564209  1.0000
  C   C7        1.0  0.881356258083081  0.48442065254082356  0.6871219386691387  1.0000
  C   C8        1.0  0.6186438412168374  0.9844205658102496  0.31287799357064466  1.0000
  C   C9        1.0  0.06331546375192482  0.808513794926834  0.2394912619586896  1.0000
  C   C10       1.0  0.43668453198497054  0.3085139241564884  0.7605088154425268  1.0000
  C   C11       1.0  0.9366591789493823  0.19150627603682566  0.7601200673655234  1.0000
  C   C12       1.0  0.56334084862342  0.6915063891079268  0.23987981211005413  1.0000
  N   N1        1.0  0.228488641000858  0.6509636877495275  0.9333231847053033  1.0000
  N   N2        1.0  0.2715114358829044  0.15096380794347328  0.0666767527737312  1.0000
  N   N3        1.0  0.7717128594038021  0.3488566521285463  0.06672430437798794  1.0000
  N   N4        1.0  0.7282869853444495  0.8488562201887487  0.9332757138218538  1.0000
  N   N5        1.0  0.11804092428854931  0.3693869810173323  0.41961573318750295  1.0000
  N   N6        1.0  0.3819591420850266  0.8693869418738153  0.5803842048393987  1.0000
  N   N7        1.0  0.8820899569505933  0.6307473726070486  0.5804217668173258  1.0000
  N   N8        1.0  0.6179099345210437  0.13074751269449641  0.4195785014169807  1.0000
  N   N9        1.0  0.011380332843386815  0.9664518890361521  0.27456278616222984  1.0000
  N   N10       1.0  0.48861969349141404  0.4664518063406625  0.7254372516675575  1.0000
  N   N11       1.0  0.9884307278858869  0.033505272188260875  0.7249213731472741  1.0000
  N   N12       1.0  0.5115692152965182  0.5335052792052187  0.2750786639766388  1.0000
  N   N13       1.0  0.0581261496021274  0.6651517316933856  0.34796575753738984  1.0000
  N   N14       1.0  0.44187386064883183  0.165151641452472  0.6520341824123437  1.0000
  N   N15       1.0  0.9418716335918013  0.3349512651567177  0.6517856304585231  1.0000
  N   N16       1.0  0.5581282955862843  0.8349511943784383  0.34821434863963596  1.0000
  N   N17       1.0  0.11808387782869216  0.8113436924129654  0.09912025480835306  1.0000
  N   N18       1.0  0.3819161475365472  0.31134382838196717  0.9008797175294925  1.0000
  N   N19       1.0  0.8819517550581976  0.18861397802466162  0.9005850538201458  1.0000
  N   N20       1.0  0.6180481753411831  0.6886138928092533  0.09941498055507812  1.0000
  N   N21       1.0  0.18136472021401978  0.5044321851448028  0.18126367588440878  1.0000
  N   N22       1.0  0.31863534875239896  0.004432313559598612  0.8187361786054567  1.0000
  N   N23       1.0  0.8188116341705145  0.495619269541837  0.8188406779202425  1.0000
  N   N24       1.0  0.6811882492571879  0.995619318404963  0.18115940073122508  1.0000
  H   H1        1.0  0.24825885769554948  0.7704526270803761  0.87879425487086  1.0000
  H   H2        1.0  0.2517412032341491  0.27045250753503985  0.1212056188208608  1.0000
  H   H3        1.0  0.751531446385269  0.22931879930574578  0.12075493500214576  1.0000
  H   H4        1.0  0.7484685493234566  0.7293189092780938  0.8792450423285653  1.0000
  H   H5        1.0  0.2773974086417421  0.537178729922103  0.9165966420994267  1.0000
  H   H6        1.0  0.2226025161851286  0.037178559427862835  0.08340339172569196  1.0000
  H   H7        1.0  0.7229827451425272  0.4627416491001463  0.08361033681308248  1.0000
  H   H8        1.0  0.7770172981588845  0.9627417969894646  0.9163896889574444  1.0000
  H   H9        1.0  0.15169084865957388  0.25242775747671037  0.3842040825943682  1.0000
  H   H10       1.0  0.34830920239606267  0.7524277469264593  0.615795838583274  1.0000
  H   H11       1.0  0.847932078828451  0.7476147373337768  0.6151848632245587  1.0000
  H   H12       1.0  0.6520678983934735  0.24761471359770734  0.38481508945795334  1.0000
  H   H13       1.0  0.057211706620644204  0.36325886739587604  0.5027011320357939  1.0000
  H   H14       1.0  0.4427882727955782  0.8632588195086749  0.49729890922336645  1.0000
  H   H15       1.0  0.9429566991257589  0.6369271098055109  0.49740999855383705  1.0000
  H   H16       1.0  0.5570433672526953  0.1369271115877121  0.5025899428423526  1.0000
  H   H17       1.0  0.9787034949661912  0.05338618709506774  0.15584419131491373  1.0000
  H   H18       1.0  0.521296381899162  0.5533860506625606  0.8441557961714338  1.0000
  H   H19       1.0  0.021405100930661076  0.9466965683929814  0.8437308874565661  1.0000
  H   H20       1.0  0.4785949210436623  0.44669653208009474  0.15626915942147215  1.0000
  H   H21       1.0  0.9438586805686081  0.9560932325125522  0.3436673109851987  1.0000
  H   H22       1.0  0.5561413799793867  0.45609317368238866  0.6563325927827508  1.0000
  H   H23       1.0  0.05565480654174032  0.04379178828282777  0.6553028761095162  1.0000
  H   H24       1.0  0.44434526984455874  0.543791798632846  0.3446971031160809  1.0000
