data_image0
_chemical_formula_structural       C12N24H24
_chemical_formula_sum              "C12 N24 H24"
_cell_length_a       10.769668167379947
_cell_length_b       7.300875473673172
_cell_length_c       7.325529625308043
_cell_angle_alpha    89.95761739391055
_cell_angle_beta     108.27433739581451
_cell_angle_gamma    89.97608127585093

_space_group_name_H-M_alt    "P 1"
_space_group_IT_number       1

loop_
  _space_group_symop_operation_xyz
  'x, y, z'

loop_
  _atom_site_type_symbol
  _atom_site_label
  _atom_site_symmetry_multiplicity
  _atom_site_fract_x
  _atom_site_fract_y
  _atom_site_fract_z
  _atom_site_occupancy
  C   C1        1.0  0.17842228343952904  0.6598338282907433  0.07589094034789584  1.0000
  C   C2        1.0  0.32131246243641975  0.16024583311868545  0.9237373481560727  1.0000
  C   C3        1.0  0.8216939367361117  0.34004971684122387  0.9242217686847499  1.0000
  C   C4        1.0  0.678541590484461  0.8401975720930841  0.07611097735818821  1.0000
  C   C5        1.0  0.11604591816080151  0.5164061899648227  0.3101294347618556  1.0000
  C   C6        1.0  0.38386593800220475  0.016954357219344858  0.6897445519837785  1.0000
  C   C7        1.0  0.8842084117577833  0.48328124106549636  0.6900535815704157  1.0000
  C   C8        1.0  0.616192516980689  0.9831593281455143  0.3103956491598557  1.0000
  C   C9        1.0  0.05774081475318733  0.8125419439677856  0.23385845309291858  1.0000
  C   C10       1.0  0.44240680673803473  0.31279938091801296  0.7662731645653664  1.0000
  C   C11       1.0  0.942371447858535  0.18714849871887054  0.7663962749655361  1.0000
  C   C12       1.0  0.5575690220238433  0.6873664933793887  0.23366918606858184  1.0000
  N   N1        1.0  0.23871545020979668  0.6581045144363744  0.9421938935022497  1.0000
  N   N2        1.0  0.26112925283018124  0.15828252381559565  0.057574885024697174  1.0000
  N   N3        1.0  0.7615040194751735  0.342029523694853  0.058059706126777626  1.0000
  N   N4        1.0  0.738877741563804  0.8422358808988879  0.9424725669054912  1.0000
  N   N5        1.0  0.114136869524634  0.3673643888668772  0.4157871160709805  1.0000
  N   N6        1.0  0.38558955296272723  0.868188049653319  0.5839115426106704  1.0000
  N   N7        1.0  0.8860459239453524  0.6321499179877837  0.5841627891606483  1.0000
  N   N8        1.0  0.6144659808423183  0.1319366980024824  0.4162920851742403  1.0000
  N   N9        1.0  0.0014567219120436487  0.9709475760047391  0.26466787301286165  1.0000
  N   N10       1.0  0.4987108013522165  0.471131285415629  0.7354452332722548  1.0000
  N   N11       1.0  0.9982943497505274  0.028462853605834566  0.7354090221958893  1.0000
  N   N12       1.0  0.5014450951761974  0.5288063168960903  0.2645856345100612  1.0000
  N   N13       1.0  0.05333838128415322  0.6671184783140642  0.34332275735716944  1.0000
  N   N14       1.0  0.44727372269929705  0.16727107681326425  0.657424942993142  1.0000
  N   N15       1.0  0.9472702674777268  0.3326918291096529  0.6574201484477541  1.0000
  N   N16       1.0  0.5530385410313368  0.8326592584186898  0.34299366139807264  1.0000
  N   N17       1.0  0.11649968768899002  0.8166559298763275  0.09653949074155918  1.0000
  N   N18       1.0  0.383303415338894  0.3169965543256526  0.9032281271614687  1.0000
  N   N19       1.0  0.8835913336555854  0.18315930708161954  0.9037241144714466  1.0000
  N   N20       1.0  0.6164448867801845  0.6834869401040748  0.09646141086436959  1.0000
  N   N21       1.0  0.1819157306023539  0.5073330659214262  0.18135035013988302  1.0000
  N   N22       1.0  0.31778426749615507  0.007848072225649046  0.8182636778756962  1.0000
  N   N23       1.0  0.818233130297454  0.4924875722342353  0.8186886145239352  1.0000
  N   N24       1.0  0.682327314499176  0.9923538758536833  0.1819564081804009  1.0000
  H   H1        1.0  0.25784608068505344  0.7822054938733531  0.8858789813367196  1.0000
  H   H2        1.0  0.2418940385105043  0.2822548947319524  0.11387856045152324  1.0000
  H   H3        1.0  0.7422162039998647  0.2180541988599128  0.11436205732231942  1.0000
  H   H4        1.0  0.7580112331347395  0.7182878697408865  0.8859946443115986  1.0000
  H   H5        1.0  0.288769361132377  0.5411061765550044  0.9269012965623449  1.0000
  H   H6        1.0  0.21109076504644642  0.04135427612748974  0.07274233115217488  1.0000
  H   H7        1.0  0.7113385537688396  0.4589642645857976  0.0730260207381397  1.0000
  H   H8        1.0  0.7888331743132415  0.9592516647426683  0.9271600542094459  1.0000
  H   H9        1.0  0.14694545817211135  0.24723088560176681  0.3776030039228299  1.0000
  H   H10       1.0  0.3509635750533855  0.7486026383094861  0.6201480350905864  1.0000
  H   H11       1.0  0.8528826354720314  0.7522349950295513  0.6218682233130312  1.0000
  H   H12       1.0  0.6479758239871688  0.25193291531938894  0.37895725336175085  1.0000
  H   H13       1.0  0.05315159813126524  0.3606460004118541  0.5019582267632811  1.0000
  H   H14       1.0  0.446443224165734  0.8612036764179235  0.4975712852710301  1.0000
  H   H15       1.0  0.9471678626007486  0.6389858359789883  0.4981601462573451  1.0000
  H   H16       1.0  0.5534063059225712  0.13888622707604856  0.50232154755315  1.0000
  H   H17       1.0  0.9706179147703304  0.05893140465959351  0.1474167844160857  1.0000
  H   H18       1.0  0.5293486218411313  0.5592075642894014  0.8523632629758001  1.0000
  H   H19       1.0  0.029291675266440935  0.9406461684900601  0.8527255354902625  1.0000
  H   H20       1.0  0.4706073906167781  0.4411357080466479  0.14729912807051843  1.0000
  H   H21       1.0  0.9362568679851285  0.9585982191657688  0.3393588129426572  1.0000
  H   H22       1.0  0.5636697954578908  0.4591420497507866  0.6603460711828117  1.0000
  H   H23       1.0  0.06298868534501338  0.04034061280529694  0.6598349844220832  1.0000
  H   H24       1.0  0.4365191513435346  0.5411090778782313  0.339709119812689  1.0000
