# CIF file generated from CASTEP cell file
# https://gist.github.com/blake-armstrong/93facdde07a6e0a1ddb51857dd48e3f1
# Structure converted from CASTEP

data_structure

_cell_length_a    10.540657512366353
_cell_length_b    7.391013607668860
_cell_length_c    7.238792939162217
_cell_angle_alpha 90.000000000000000
_cell_angle_beta  112.271460511725337
_cell_angle_gamma 90.000000000000000

_symmetry_space_group_name_H-M 'P 1'
_symmetry_Int_Tables_number 1

loop_
_atom_site_label
_atom_site_type_symbol
_atom_site_fract_x
_atom_site_fract_y
_atom_site_fract_z
H1       H     0.246850573725637    0.768292483895970   -0.124402335778784
H2       H     0.276279367888488    0.532573804365562   -0.085253116573181
H3       H     0.150732539246379    0.245832341806169    0.386076553799990
H4       H     0.057996333982229    0.360613068661677    0.505575465476807
H5       H    -0.023906206700869    1.054529393974260    0.152759346017587
H6       H    -0.055942335345939    0.956906161420976    0.344506166611842
H7       H     0.253149500355093    0.268292483895971    1.124402378413533
H8       H     0.223720706192243    0.032573804365562    1.085253159207931
H9       H     0.349267534834352   -0.254167658193831    0.613923488834759
H10      H     0.442003740098502   -0.139386931338323    0.494424577157943
H11      H     0.523906280781599    0.554529393974260    0.847240696617163
H12      H     0.555942409426670    0.456906161420976    0.655493876022908
H13      H     0.753149500355094    0.231707516104030    1.124402378413533
H14      H     0.723720706192243    0.467426195634438    1.085253159207931
H15      H     0.849267534834353    0.754167658193831    0.613923488834759
H16      H     0.942003740098502    0.639386931338323    0.494424577157943
H17      H     1.023906280781601   -0.054529393974260    0.847240696617163
H18      H     1.055942409426669    0.043093838579024    0.655493876022908
H19      H     0.746850573725636    0.731707516104030   -0.124402335778784
H20      H     0.776279367888488    0.967426195634438   -0.085253116573181
H21      H     0.650732539246378    1.254167658193831    0.386076553799990
H22      H     0.557996333982229    1.139386931338324    0.505575465476807
H23      H     0.476093793299130    0.445470606025740    0.152759346017587
H24      H     0.444057664654061    0.543093838579024    0.344506166611842
C1       C     0.173990303388544    0.651655825143427    0.072275660442326
C2       C     0.119612693983717    0.512320516926643    0.314632837895289
C3       C     0.062689753540791    0.807895103172404    0.238764810021819
C4       C     0.326009770692187    0.151655825143427    0.927724382192424
C5       C     0.380387380097015    0.012320516926643    0.685367204739461
C6       C     0.437310320539940    0.307895103172404    0.761235232612931
C7       C     0.826009770692188    0.348344174856574    0.927724382192424
C8       C     0.880387380097014    0.487679483073357    0.685367204739461
C9       C     0.937310320539940    0.192104896827597    0.761235232612931
C10      C     0.673990303388543    0.848344174856573    0.072275660442326
C11      C     0.619612693983717    0.987679483073357    0.314632837895289
C12      C     0.562689753540791    0.692104896827596    0.238764810021819
N1       N     0.226044663215581    0.647255108982474   -0.070798089268853
N2       N     0.120605344064044    0.365237267017843    0.424716146615099
N3       N     0.010419600035672    0.967803790864139    0.273468333158218
N4       N     0.058652663955182    0.663444226283645    0.349275272116360
N5       N     0.116495385192319    0.810265059326861    0.096579366109729
N6       N     0.181126408613559    0.500076919862939    0.181076132645032
N7       N     0.273955410865150    0.147255108982474    1.070798131903602
N8       N     0.379394730016687   -0.134762732982157    0.575283896019650
N9       N     0.489580474045059    0.467803790864138    0.726531709476532
N10      N     0.441347410125549    0.163444226283645    0.650724770518392
N11      N     0.383504688888412    0.310265059326862    0.903420676525021
N12      N     0.318873665467172    0.000076919862939    0.818923909989718
N13      N     0.773955410865150    0.352744891017526    1.070798131903602
N14      N     0.879394730016687    0.634762732982157    0.575283896019650
N15      N     0.989580474045060    0.032196209135862    0.726531709476532
N16      N     0.941347410125549    0.336555773716355    0.650724770518392
N17      N     0.883504688888412    0.189734940673139    0.903420676525021
N18      N     0.818873665467172    0.499923080137061    0.818923909989718
N19      N     0.726044663215581    0.852744891017526   -0.070798089268853
N20      N     0.620605344064044    1.134762732982157    0.424716146615099
N21      N     0.510419600035671    0.532196209135861    0.273468333158218
N22      N     0.558652663955182    0.836555773716355    0.349275272116360
N23      N     0.616495385192319    0.689734940673139    0.096579366109729
N24      N     0.681126408613559    0.999923080137062    0.181076132645032
