data_image0
_chemical_formula_structural       C24H32O28H8O4
_chemical_formula_sum              "C24 H40 O32"
_cell_length_a       6.339747438689019
_cell_length_b       9.334105287627063
_cell_length_c       15.107631939170565
_cell_angle_alpha    89.99373519678159
_cell_angle_beta     89.98301179230305
_cell_angle_gamma    89.93661915580486

_space_group_name_H-M_alt    "P 1"
_space_group_IT_number       1

loop_
  _space_group_symop_operation_xyz
  'x, y, z'

loop_
  _atom_site_type_symbol
  _atom_site_label
  _atom_site_symmetry_multiplicity
  _atom_site_fract_x
  _atom_site_fract_y
  _atom_site_fract_z
  _atom_site_occupancy
  C   C1        1.0  0.4314068878835099  0.1704303428220242  0.11461853169400214  1.0000
  C   C2        1.0  0.06819049376853593  0.8296130589463937  0.6147564443000526  1.0000
  C   C3        1.0  0.5679151566764807  0.6715573227268289  0.3848876489636059  1.0000
  C   C4        1.0  0.9316405399608478  0.32851622381889317  0.8853660454485603  1.0000
  C   C5        1.0  0.5542406931041853  0.3062325998334244  0.1260405476893717  1.0000
  C   C6        1.0  0.9457657868210706  0.693610570280632  0.6262254995575284  1.0000
  C   C7        1.0  0.4454947553495035  0.8077293119594472  0.3733216425446326  1.0000
  C   C8        1.0  0.05445613144158531  0.19246971963965623  0.8740261107701223  1.0000
  C   C9        1.0  0.420556951648222  0.4414416099338185  0.10664269246823288  1.0000
  C   C10       1.0  0.0797291846204093  0.5585146316694573  0.6067966755156604  1.0000
  C   C11       1.0  0.5794390705731057  0.9424180297824127  0.3933039912379719  1.0000
  C   C12       1.0  0.9207505561140333  0.05747088154772177  0.893262062536693  1.0000
  C   C13       1.0  0.5608934285567039  0.5726722861742444  0.1192655456889799  1.0000
  C   C14       1.0  0.9395428766329761  0.42715153275024836  0.6196439260213443  1.0000
  C   C15       1.0  0.4390505820469492  0.07397218776898877  0.3809159388938237  1.0000
  C   C16       1.0  0.06104103295287483  0.9259450812089486  0.8806816751091007  1.0000
  C   C17       1.0  0.4464793960098987  0.7118755557050216  0.10577417214164146  1.0000
  C   C18       1.0  0.05382033616423217  0.28792385814747457  0.6058851512760108  1.0000
  C   C19       1.0  0.5531223856787656  0.21316140585644966  0.3945265102691557  1.0000
  C   C20       1.0  0.9462688319046142  0.7870363099643108  0.8944300980462719  1.0000
  C   C21       1.0  0.22700359387566552  0.44641967711607344  0.16854244969509644  1.0000
  C   C22       1.0  0.27341264778446134  0.5536903809498486  0.6686162848186364  1.0000
  C   C23       1.0  0.773190920478893  0.9475492141091263  0.3314912376448503  1.0000
  C   C24       1.0  0.7272282904554032  0.05280237657184775  0.8314003735918052  1.0000
  H   H1        1.0  0.6117316887538239  0.3112262020699205  0.19491738718405113  1.0000
  H   H2        1.0  0.8885945921907801  0.6884464426671676  0.6951526722952392  1.0000
  H   H3        1.0  0.3895296034161109  0.813313623995411  0.3042379504175944  1.0000
  H   H4        1.0  0.11183837207529881  0.1873769522367385  0.8051224627234054  1.0000
  H   H5        1.0  0.6915206313881855  0.3051041092410238  0.08150798045229907  1.0000
  H   H6        1.0  0.808248491559878  0.6945362250229767  0.5818757314270231  1.0000
  H   H7        1.0  0.3071404104970379  0.8068275562235037  0.4172500001763314  1.0000
  H   H8        1.0  0.19180035476519713  0.1933300786502555  0.9184788003254327  1.0000
  H   H9        1.0  0.6232348585479992  0.5741204642677086  0.18758182535834986  1.0000
  H   H10       1.0  0.8779829643116589  0.425517287492854  0.6880877333858735  1.0000
  H   H11       1.0  0.3769380074532702  0.07596419590135177  0.3125596278186452  1.0000
  H   H12       1.0  0.12332963513384952  0.9239396124081556  0.8123368104144452  1.0000
  H   H13       1.0  0.6984950556487541  0.566126676268039  0.07497494151731163  1.0000
  H   H14       1.0  0.8012365997434584  0.4339376485022193  0.5757961378475311  1.0000
  H   H15       1.0  0.3010932624838703  0.06729470779146429  0.4249785438759458  1.0000
  H   H16       1.0  0.19869348644312887  0.9323090888459101  0.9249008901758056  1.0000
  H   H17       1.0  0.17385288808003022  0.06855342252398111  0.15198019604407192  1.0000
  H   H18       1.0  0.3259033548765195  0.931557572539135  0.6521347686878336  1.0000
  H   H19       1.0  0.8261587872519784  0.56930748432872  0.3479366859127818  1.0000
  H   H20       1.0  0.6741868683183041  0.4307415419184272  0.8478287245318771  1.0000
  H   H21       1.0  0.495286638240972  0.9097015084478948  0.06649421304442586  1.0000
  H   H22       1.0  0.004714162313814052  0.09037590328711646  0.5663487670922589  1.0000
  H   H23       1.0  0.503829049655723  0.4110910621437381  0.4334526331338364  1.0000
  H   H24       1.0  0.9951688610967346  0.5891885926600409  0.9337253633379158  1.0000
  H   H25       1.0  0.15443363544870686  0.4544960416341965  0.29381055337731415  1.0000
  H   H26       1.0  0.3459067761537896  0.5456574222686261  0.7938303649534658  1.0000
  H   H27       1.0  0.8457498958226595  0.9551960811855154  0.20619433347183325  1.0000
  H   H28       1.0  0.6545656585436516  0.04513266349018159  0.7061442114555917  1.0000
  H   H29       1.0  0.1956135361516086  0.4230315798500979  0.012708000630947049  1.0000
  H   H30       1.0  0.30394378376149983  0.5776756585942674  0.5124275066379126  1.0000
  H   H31       1.0  0.8044518476218571  0.9239387140473173  0.48717054775619156  1.0000
  H   H32       1.0  0.6954927972572762  0.07600015447367142  0.9871266099681416  1.0000
  O   O1        1.0  0.2747334242697265  0.15544275609679276  0.16955143597679817  1.0000
  O   O2        1.0  0.22472668792233985  0.844763709458028  0.6697008986973713  1.0000
  O   O3        1.0  0.7253684544970139  0.6563695576189708  0.33035729501287064  1.0000
  O   O4        1.0  0.7749903701832576  0.34357266582763984  0.830426452935004  1.0000
  O   O5        1.0  0.4749040489206273  0.07973129558242041  0.05684619462568273  1.0000
  O   O6        1.0  0.02455305027836097  0.9202406875282969  0.556948895964515  1.0000
  O   O7        1.0  0.523448760676  0.5808951662741062  0.44252941052933165  1.0000
  O   O8        1.0  0.9751942321815518  0.4192912101546776  0.9430172838214179  1.0000
  O   O9        1.0  0.5632034034718816  0.8107499645236341  0.06805941274768505  1.0000
  O   O10       1.0  0.9370927739468158  0.18945293628854573  0.5678072703195591  1.0000
  O   O11       1.0  0.4360740801635499  0.312091141920348  0.43211775476232445  1.0000
  O   O12       1.0  0.06287609322319979  0.6881343666513163  0.9322904491996828  1.0000
  O   O13       1.0  0.262901649905809  0.7301318086520068  0.13082250475600313  1.0000
  O   O14       1.0  0.23717750917389332  0.2691461189522881  0.6310304247339872  1.0000
  O   O15       1.0  0.7367209368641211  0.23141698743848474  0.3695318052698245  1.0000
  O   O16       1.0  0.7626571386395983  0.7691007076473324  0.8694773050094473  1.0000
  O   O17       1.0  0.2819969387360915  0.459118506598636  0.25276509674258457  1.0000
  O   O18       1.0  0.21822146065712597  0.5412458469786138  0.7528625885179274  1.0000
  O   O19       1.0  0.7182214310838807  0.9602458722370801  0.24724724824923303  1.0000
  O   O20       1.0  0.7821624695844585  0.040447256207456886  0.7471427008462412  1.0000
  O   O21       1.0  0.047983272091111834  0.4348439398819802  0.1402974773058809  1.0000
  O   O22       1.0  0.45254083427491715  0.5652044589358666  0.6404285499263797  1.0000
  O   O23       1.0  0.9522527540895195  0.9360152323453916  0.359791001743185  1.0000
  O   O24       1.0  0.5481809615885015  0.06419872805628202  0.8597668194253334  1.0000
  O   O25       1.0  0.3517662834572583  0.43732589072582906  0.01761367268277312  1.0000
  O   O26       1.0  0.14803211828094964  0.5623357561509638  0.5177126969325588  1.0000
  O   O27       1.0  0.6479996828257203  0.9372632015839817  0.48231803167489445  1.0000
  O   O28       1.0  0.8516634925235828  0.06131618513753628  0.9822884414102373  1.0000
  H   H33       1.0  0.9615700861119177  0.9842346863415271  0.07060537516517704  1.0000
  H   H34       1.0  0.5384389011299976  0.015026271388211157  0.5707225526880179  1.0000
  H   H35       1.0  0.038518226732511276  0.48497667724601423  0.4292256060555312  1.0000
  H   H36       1.0  0.46160148992425637  0.5150337070369965  0.9291592658120574  1.0000
  H   H37       1.0  0.11236658677024379  0.8663365426125517  0.12391437927135655  1.0000
  H   H38       1.0  0.38778371151005747  0.13327768741991963  0.6239697319415665  1.0000
  H   H39       1.0  0.8875956953687033  0.36715851391151094  0.3761981891326895  1.0000
  H   H40       1.0  0.6126154395377783  0.6329731315487697  0.8761579218340847  1.0000
  O   O29       1.0  0.025921464689540968  0.9580273760040736  0.12960552404093872  1.0000
  O   O30       1.0  0.47430352607260484  0.041567911453257715  0.6297035033429544  1.0000
  O   O31       1.0  0.9743220179152686  0.4585811815582766  0.3702737042307152  1.0000
  O   O32       1.0  0.5259957257280999  0.541481280248526  0.870222883612692  1.0000
