data_C6H10O8
_audit_creation_method 'chmpy python library version 1.0a1'
_cell_length_a 5.987265
_cell_length_b 9.359948
_cell_length_c 15.163142
_cell_angle_alpha 90.0
_cell_angle_beta 90.0
_cell_angle_gamma 90.0
loop_
_symmetry_equiv_pos_site_id
_symmetry_equiv_pos_as_xyz
                   1 +x,+y,+z
                   2 -x,1/2+y,1/2-z
                   3 1/2-x,-y,1/2+z
                   4 1/2+x,1/2-y,-z
loop_
_atom_site_label
_atom_site_type_symbol
_atom_site_fract_x
_atom_site_fract_y
_atom_site_fract_z
_atom_site_occupancy
C C       0.416430000000       0.172565000000       0.101150000000       1.000000000000
C C       0.576787000000       0.294531000000       0.120199000000       1.000000000000
C C       0.468969000000       0.446355000000       0.111772000000       1.000000000000
C C       0.643923000000       0.565467000000       0.132842000000       1.000000000000
C C       0.546696000000       0.713644000000       0.121570000000       1.000000000000
C C       0.266952000000       0.460323000000       0.175217000000       1.000000000000
H H       0.644753000000       0.280820000000       0.187843000000       1.000000000000
H H       0.721307000000       0.288238000000       0.074363000000       1.000000000000
H H       0.704772000000       0.553055000000       0.201638000000       1.000000000000
H H       0.791055000000       0.552756000000       0.088873000000       1.000000000000
H H       0.153913000000       0.067981000000       0.139249000000       1.000000000000
H H       0.527291000000       0.883385000000       0.046325000000       1.000000000000
H H       0.190446000000       0.460037000000       0.301087000000       1.000000000000
H H       0.232035000000       0.438099000000       0.014976000000       1.000000000000
O O       0.244894000000       0.152438000000       0.159460000000       1.000000000000
O O       0.441889000000       0.094773000000       0.036046000000       1.000000000000
O O       0.588896000000       0.782875000000       0.043821000000       1.000000000000
O O       0.429437000000       0.765231000000       0.180495000000       1.000000000000
O O       0.318618000000       0.488029000000       0.261602000000       1.000000000000
O O       0.074666000000       0.442005000000       0.147923000000       1.000000000000
O O       0.394387000000       0.467112000000       0.021968000000       1.000000000000
H H       1.007530000000       0.849874000000       0.059780000000       1.000000000000
H H       0.153173000000       0.836361000000       0.145774000000       1.000000000000
O O       0.017841000000       0.886284000000       0.121929000000       1.000000000000
#END