data_image0
_chemical_formula_structural       C24H32O28H8O4
_chemical_formula_sum              "C24 H40 O32"
_cell_length_a       6.297
_cell_length_b       9.319
_cell_length_c       15.398
_cell_angle_alpha    90.0
_cell_angle_beta     90.0
_cell_angle_gamma    90.0

_space_group_name_H-M_alt    "P 1"
_space_group_IT_number       1

loop_
  _space_group_symop_operation_xyz
  'x, y, z'

loop_
  _atom_site_type_symbol
  _atom_site_label
  _atom_site_symmetry_multiplicity
  _atom_site_fract_x
  _atom_site_fract_y
  _atom_site_fract_z
  _atom_site_occupancy
  C   C1        1.0  0.43375169535495306  0.16996138186680448  0.11335532017826362  1.0000
  C   C2        1.0  0.0662484561163921  0.8300385518242342  0.6133551872984769  1.0000
  C   C3        1.0  0.5662484329737456  0.6699615460072728  0.3866446956743093  1.0000
  C   C4        1.0  0.9337517421430536  0.3300384854562473  0.8866447937345893  1.0000
  C   C5        1.0  0.5647586352154207  0.30335301816472693  0.1286036513109594  1.0000
  C   C6        1.0  0.9352413641473769  0.6966469270096431  0.6286036929298515  1.0000
  C   C7        1.0  0.4352412189207466  0.803353090978614  0.37139634592544923  1.0000
  C   C8        1.0  0.0647589161620685  0.19664686678300694  0.8713964066563555  1.0000
  C   C9        1.0  0.43349699844555134  0.4420163493140593  0.11262296779510908  1.0000
  C   C10       1.0  0.06650286073052485  0.5579835867434321  0.6126229454290142  1.0000
  C   C11       1.0  0.5665029567815858  0.9420163278016159  0.38737702593269696  1.0000
  C   C12       1.0  0.9334970408175765  0.0579837064609302  0.8873770460186317  1.0000
  C   C13       1.0  0.5780337264377067  0.5737357391342034  0.12302257169179757  1.0000
  C   C14       1.0  0.9219661600867881  0.4262642388530287  0.6230225728943767  1.0000
  C   C15       1.0  0.42196626414018745  0.07373563262898204  0.3769774514231774  1.0000
  C   C16       1.0  0.0780337578348355  0.9262644340060928  0.8769774526569432  1.0000
  C   C17       1.0  0.46039485516765055  0.7129101962911601  0.10856711035927816  1.0000
  C   C18       1.0  0.039605104152068304  0.28708969679656166  0.60856705743692  1.0000
  C   C19       1.0  0.5396050194406962  0.21291020691751558  0.3914329326612927  1.0000
  C   C20       1.0  0.9603947742732096  0.7870898126992985  0.891432841271801  1.0000
  C   C21       1.0  0.24107471218222656  0.44865769073777695  0.17506868075124452  1.0000
  C   C22       1.0  0.2589252805240415  0.5513422734441709  0.6750685600840733  1.0000
  C   C23       1.0  0.7589252987038884  0.9486577660309509  0.32493136541059153  1.0000
  C   C24       1.0  0.7410744508869361  0.05134222017084155  0.824931265956522  1.0000
  H   H1        1.0  0.6231885886741869  0.30203029739325565  0.19589318634693748  1.0000
  H   H2        1.0  0.8768116773513162  0.6979696402219432  0.6958931690044028  1.0000
  H   H3        1.0  0.37681168341638355  0.8020301923688998  0.3041067427379903  1.0000
  H   H4        1.0  0.1231881962614897  0.1979700409700407  0.8041067412534461  1.0000
  H   H5        1.0  0.7018307633626956  0.303402943620703  0.08474321320862964  1.0000
  H   H6        1.0  0.7981690906170417  0.6965972373952917  0.5847431528180161  1.0000
  H   H7        1.0  0.29816893760729535  0.8034030433542169  0.4152567463074564  1.0000
  H   H8        1.0  0.20183135743049022  0.19659664953468936  0.9152567361334959  1.0000
  H   H9        1.0  0.643838158978409  0.577352190644484  0.18911391499133726  1.0000
  H   H10       1.0  0.8561618482465818  0.4226477868427331  0.6891138925680814  1.0000
  H   H11       1.0  0.35616175470405154  0.07735224490943252  0.31088607169054283  1.0000
  H   H12       1.0  0.14383838104770968  0.9226476504453363  0.810886060112973  1.0000
  H   H13       1.0  0.7128923321677444  0.5648558300259904  0.07833798243083762  1.0000
  H   H14       1.0  0.7871074717816791  0.43514423742291364  0.5783379794722702  1.0000
  H   H15       1.0  0.28710770356916776  0.0648557538152824  0.421662021753278  1.0000
  H   H16       1.0  0.21289213838562748  0.9351444318679816  0.9216620170996633  1.0000
  H   H17       1.0  0.17260321094450953  0.07236484969122366  0.1501782102592642  1.0000
  H   H18       1.0  0.3273968934800555  0.9276351315389723  0.6501782309352364  1.0000
  H   H19       1.0  0.8273968025692211  0.5723648568113384  0.34982180422224457  1.0000
  H   H20       1.0  0.6726033676086911  0.42763517102021126  0.8498218678113876  1.0000
  H   H21       1.0  0.49492016129714855  0.9005913478789808  0.056251038907890565  1.0000
  H   H22       1.0  0.005079875063041639  0.099408610360531  0.5562510528778161  1.0000
  H   H23       1.0  0.5050797504669526  0.400591395567349  0.4437489518924757  1.0000
  H   H24       1.0  0.9949203246823398  0.5994086816630668  0.9437489448091315  1.0000
  H   H25       1.0  0.17362448039070594  0.45277791906155057  0.29814965157683604  1.0000
  H   H26       1.0  0.3263751204102492  0.5472222204619493  0.798149634504555  1.0000
  H   H27       1.0  0.8263754748719436  0.9527779576540002  0.20185034576154226  1.0000
  H   H28       1.0  0.6736242514326002  0.047221866260066  0.7018502189062277  1.0000
  H   H29       1.0  0.20202553739207663  0.42478705919722387  0.023463864107955833  1.0000
  H   H30       1.0  0.29797448658858383  0.5752129232652121  0.5234638392030823  1.0000
  H   H31       1.0  0.7979743262412933  0.9247868299462456  0.4765362573047038  1.0000
  H   H32       1.0  0.7020257295310649  0.07521307499238053  0.9765362369644299  1.0000
  O   O1        1.0  0.2740360046401157  0.15568812793545828  0.16791457564073015  1.0000
  O   O2        1.0  0.22596409902790918  0.8443119617651952  0.6679145811643836  1.0000
  O   O3        1.0  0.7259639382673906  0.6556880957632422  0.3320854340022881  1.0000
  O   O4        1.0  0.7740361642319545  0.34431190790993216  0.8320854458428483  1.0000
  O   O5        1.0  0.4709824469384219  0.08255019905581477  0.05404187145356847  1.0000
  O   O6        1.0  0.029017530045599267  0.9174497855110538  0.5540419032141919  1.0000
  O   O7        1.0  0.5290176939151829  0.5825503671260366  0.4459581264872069  1.0000
  O   O8        1.0  0.9709826766580506  0.41744952588232775  0.9459582326188536  1.0000
  O   O9        1.0  0.5630872011753755  0.8029896250823306  0.05632041304074014  1.0000
  O   O10       1.0  0.9369128712700586  0.19701037701068325  0.5563204292146605  1.0000
  O   O11       1.0  0.43691274392913754  0.3029896091287699  0.4436795870761362  1.0000
  O   O12       1.0  0.06308737858992353  0.6970104415226874  0.9436795517155426  1.0000
  O   O13       1.0  0.2881747992242128  0.7400714776552408  0.143506782973168  1.0000
  O   O14       1.0  0.21182515552384001  0.25992846544932185  0.6435068171567182  1.0000
  O   O15       1.0  0.7118251056555608  0.2400714504946513  0.3564932887772819  1.0000
  O   O16       1.0  0.7881747602283817  0.7599285112128183  0.8564932700031338  1.0000
  O   O17       1.0  0.301121603322871  0.4550528373503602  0.25797134186979254  1.0000
  O   O18       1.0  0.1988782759360022  0.5449471495971856  0.7579714246626188  1.0000
  O   O19       1.0  0.6988783797862294  0.9550529803558854  0.24202865169484708  1.0000
  O   O20       1.0  0.8011214251583546  0.044946902877399324  0.7420286590624738  1.0000
  O   O21       1.0  0.057914203242270916  0.4441426634408061  0.14869517985621616  1.0000
  O   O22       1.0  0.4420857862018421  0.555857386193435  0.6486951605988559  1.0000
  O   O23       1.0  0.9420859910508997  0.9441429032223281  0.3513048200735251  1.0000
  O   O24       1.0  0.5579139082147264  0.05585714679235337  0.8513048101512328  1.0000
  O   O25       1.0  0.357690736437832  0.4403597160597716  0.025048501792950432  1.0000
  O   O26       1.0  0.14230930364843228  0.559640348169953  0.5250485019083059  1.0000
  O   O27       1.0  0.6423091047574531  0.9403597333185113  0.47495147914908065  1.0000
  O   O28       1.0  0.8576908643519717  0.0596403471766221  0.9749514599488962  1.0000
  H   H33       1.0  0.9595778766234079  0.9785841971733514  0.0669307838181351  1.0000
  H   H34       1.0  0.5404222480455385  0.021415841004516146  0.5669307085113181  1.0000
  H   H35       1.0  0.04042225711260998  0.4785841833691843  0.43306923581175283  1.0000
  H   H36       1.0  0.4595779510396308  0.52141584111117  0.9330692196491142  1.0000
  H   H37       1.0  0.10604065051016885  0.8679851545382266  0.12457527907964784  1.0000
  H   H38       1.0  0.3939593579481896  0.13201491479211752  0.624575181426224  1.0000
  H   H39       1.0  0.8939593457384364  0.36798514813423494  0.3754248581839115  1.0000
  H   H40       1.0  0.6060406812144976  0.6320148132362885  0.8754248868098112  1.0000
  O   O29       1.0  0.014478438350734207  0.956003729827895  0.1262497711901287  1.0000
  O   O30       1.0  0.48552156147991804  0.04399634242633034  0.6262497255956968  1.0000
  O   O31       1.0  0.9855216162367131  0.45600370136977636  0.3737502673140631  1.0000
  O   O32       1.0  0.5144783182819792  0.5439961957114229  0.873750072558336  1.0000
