# CIF file generated from CASTEP cell file
# https://gist.github.com/blake-armstrong/93facdde07a6e0a1ddb51857dd48e3f1
# Structure converted from CASTEP

data_structure

_cell_length_a    6.309472250739450
_cell_length_b    9.325957283168830
_cell_length_c    15.189392912197301
_cell_angle_alpha 90.000000000000000
_cell_angle_beta  90.000000000000000
_cell_angle_gamma 90.000000000000000

_symmetry_space_group_name_H-M 'P 1'
_symmetry_Int_Tables_number 1

loop_
_atom_site_label
_atom_site_type_symbol
_atom_site_fract_x
_atom_site_fract_y
_atom_site_fract_z
H1       H     0.623789979793479    0.301964965407716    0.196504741727065
H2       H     0.700955727761726    0.300206812513921    0.083894258939897
H3       H     0.647363044964105    0.574556989369365    0.187129132294439
H4       H     0.711453790661024    0.562043619507131    0.074649643667641
H5       H     0.176590392756610    0.071614327789951    0.153220332004085
H6       H     0.495991854520403    0.898667553596166    0.056548139396331
H7       H     0.171714760505935    0.452277683318003    0.297772598662229
H8       H     0.201476266582534    0.425053072043598    0.022490315164541
H9       H    -0.038530462684106    0.979477531785929    0.068556672312797
H10      H     0.106570958169583    0.867148156609026    0.124731999630432
H11      H    -0.123789979793479    0.698035034592285    0.696504741727065
H12      H    -0.200955727761725    0.699793187486079    0.583894258939898
H13      H    -0.147363044964105    0.425443010630635    0.687129132294439
H14      H    -0.211453790661024    0.437956380492869    0.574649643667641
H15      H     0.323409607243390    0.928385672210049    0.653220332004086
H16      H     0.004008145479596    0.101332446403834    0.556548139396330
H17      H     0.328285239494065    0.547722316681997    0.797772598662229
H18      H     0.298523733417466    0.574946927956402    0.522490315164541
H19      H     0.538530462684107    0.020522468214070    0.568556672312797
H20      H     0.393429041830417    0.132851843390973    0.624731999630431
H21      H     1.123789979793479    0.198035034592284    0.803495258272935
H22      H     1.200955727761725    0.199793187486079    0.916105741060102
H23      H     1.147363044964106   -0.074556989369365    0.812870867705561
H24      H     1.211453790661024   -0.062043619507131    0.925350356332359
H25      H     0.676590392756610    0.428385672210049    0.846779667995914
H26      H     0.995991854520404   -0.398667553596166    0.943451860603670
H27      H     0.671714760505935    0.047722316681997    0.702227401337771
H28      H     0.701476266582533    0.074946927956401    0.977509684835459
H29      H     0.461469537315893    0.520522468214071    0.931443327687203
H30      H     0.606570958169585    0.632851843390974    0.875268000369569
H31      H     0.376210020206521    0.801964965407715    0.303495258272934
H32      H     0.299044272238275    0.800206812513921    0.416105741060103
H33      H     0.352636955035895    1.074556989369364    0.312870867705561
H34      H     0.288546209338976    1.062043619507132    0.425350356332358
H35      H     0.823409607243390    0.571614327789951    0.346779667995915
H36      H     0.504008145479596    1.398667553596167    0.443451860603669
H37      H     0.828285239494065    0.952277683318003    0.202227401337770
H38      H     0.798523733417467    0.925053072043598    0.477509684835459
H39      H     1.038530462684105    0.479477531785929    0.431443327687203
H40      H     0.893429041830415    0.367148156609027    0.375268000369567
C1       C     0.433775351728918    0.167886503048831    0.114589681466955
C2       C     0.564892295116775    0.301407131696224    0.128525719905205
C3       C     0.433963293696625    0.439661286868460    0.111190413427058
C4       C     0.578862573094335    0.571143210198770    0.120747464229322
C5       C     0.461716919343582    0.710661660193076    0.107245912771515
C6       C     0.241820164264700    0.447702388145507    0.174205204554830
C7       C     0.066224648271082    0.832113496951169    0.614589681466955
C8       C    -0.064892295116775    0.698592868303775    0.628525719905205
C9       C     0.066036706303375    0.560338713131541    0.611190413427057
C10      C    -0.078862573094335    0.428856789801231    0.620747464229323
C11      C     0.038283080656418    0.289338339806924    0.607245912771516
C12      C     0.258179835735300    0.552297611854494    0.674205204554830
C13      C     0.933775351728918    0.332113496951169    0.885410318533045
C14      C     1.064892295116774    0.198592868303776    0.871474280094795
C15      C     0.933963293696625    0.060338713131541    0.888809586572943
C16      C     1.078862573094335   -0.071143210198769    0.879252535770677
C17      C     0.961716919343582   -0.210661660193076    0.892754087228484
C18      C     0.741820164264700    0.052297611854493    0.825794795445170
C19      C     0.566224648271082    0.667886503048831    0.385410318533045
C20      C     0.435107704883225    0.801407131696225    0.371474280094795
C21      C     0.566036706303375    0.939661286868459    0.388809586572942
C22      C     0.421137426905665    1.071143210198770    0.379252535770677
C23      C     0.538283080656418    1.210661660193075    0.392754087228485
C24      C     0.758179835735300    0.947702388145506    0.325794795445170
O1       O     0.276206795967526    0.154520386192191    0.170937518235866
O2       O     0.467900749351877    0.080031175570972    0.054843412818449
O3       O     0.565356045978289    0.802214235139477    0.055739456275396
O4       O     0.289919868171391    0.736923886129095    0.142222773481480
O5       O     0.300382668931868    0.454924327121382    0.258278883693622
O6       O     0.059931950174356    0.443213954426504    0.147207360731697
O7       O     0.357159675347991    0.435860036720845    0.022770710782379
O8       O     0.017237683116415    0.955009451971282    0.127898063368494
O9       O     0.223793204032474    0.845479613807808    0.670937518235866
O10      O     0.032099250648123    0.919968824429028    0.554843412818449
O11      O    -0.065356045978288    0.197785764860523    0.555739456275396
O12      O     0.210080131828608    0.263076113870905    0.642222773481481
O13      O     0.199617331068131    0.545075672878618    0.758278883693623
O14      O     0.440068049825644    0.556786045573496    0.647207360731697
O15      O     0.142840324652009    0.564139963279155    0.522770710782379
O16      O     0.482762316883585    0.044990548028718    0.627898063368494
O17      O     0.776206795967526    0.345479613807808    0.829062481764134
O18      O     0.967900749351877    0.419968824429028    0.945156587181551
O19      O     1.065356045978288   -0.302214235139477    0.944260543724604
O20      O     0.789919868171392   -0.236923886129095    0.857777226518519
O21      O     0.800382668931868    0.045075672878618    0.741721116306377
O22      O     0.559931950174356    0.056786045573496    0.852792639268303
O23      O     0.857159675347990    0.064139963279155    0.977229289217621
O24      O     0.517237683116415    0.544990548028718    0.872101936631506
O25      O     0.723793204032474    0.654520386192192    0.329062481764134
O26      O     0.532099250648123    0.580031175570972    0.445156587181551
O27      O     0.434643954021712    1.302214235139477    0.444260543724603
O28      O     0.710080131828608    1.236923886129096    0.357777226518519
O29      O     0.699617331068132    0.954924327121382    0.241721116306377
O30      O     0.940068049825644    0.943213954426504    0.352792639268303
O31      O     0.642840324652010    0.935860036720845    0.477229289217621
O32      O     0.982762316883585    0.455009451971282    0.372101936631506
