data_cif

_audit_creation_method             'generated by GULP'

_symmetry_space_group_name_H-M     'P 21 21 21      '
_symmetry_Int_Tables_number        19
_symmetry_cell_setting             Orthorhombic

_cell_length_a                       6.262305
_cell_length_b                       9.560259
_cell_length_c                      15.431872
_cell_angle_alpha                   90.000000
_cell_angle_beta                    90.000000
_cell_angle_gamma                   90.000000

loop_
_atom_site_label
_atom_site_fract_x
_atom_site_fract_y
_atom_site_fract_z
_atom_site_occupancy
  C4          0.42789      0.18450      0.11794  1.0000
  C2          0.56289      0.31700      0.12094  1.0000
  C2          0.43399      0.45267      0.10077  1.0000
  C2          0.58818      0.58033      0.10220  1.0000
  C4          0.48353      0.72373      0.09487  1.0000
  C4          0.24515      0.47091      0.16648  1.0000
  H1          0.63368      0.32380      0.18581  1.0000
  H1          0.69527      0.30533      0.07509  1.0000
  H1          0.67899      0.58092      0.16271  1.0000
  H1          0.70646      0.57088      0.05024  1.0000
  H5          0.20458      0.08956      0.16560  1.0000
  H5          0.52591      0.90800      0.08070  1.0000
  H5          0.16438      0.48524      0.27842  1.0000
  H5          0.19292      0.44146      0.02059  1.0000
  O3          0.28538      0.17440      0.18161  1.0000
  O6          0.44703      0.09143      0.06464  1.0000
  O3          0.62175      0.82700      0.08193  1.0000
  O6          0.29409      0.74910      0.10031  1.0000
  O3          0.30258      0.49626      0.24841  1.0000
  O6          0.05789      0.46145      0.14637  1.0000
  O3          0.35013      0.44002      0.01465  1.0000
  H5          0.95493      0.97732      0.08674  1.0000
  H5          0.10101      0.87025      0.13156  1.0000
  O3          0.03039      0.96147      0.14214  1.0000
