# CIF file generated from CASTEP cell file
# https://gist.github.com/blake-armstrong/93facdde07a6e0a1ddb51857dd48e3f1
# Structure converted from CASTEP

data_structure

_cell_length_a    5.168382875169443
_cell_length_b    11.611605130524699
_cell_length_c    8.252080732514093
_cell_angle_alpha 90.000000000000000
_cell_angle_beta  95.511990022040990
_cell_angle_gamma 90.000000000000000

_symmetry_space_group_name_H-M 'P 1'
_symmetry_Int_Tables_number 1

loop_
_atom_site_label
_atom_site_type_symbol
_atom_site_fract_x
_atom_site_fract_y
_atom_site_fract_z
H1       H     0.296673439327416   -0.205362908541585    0.208059852330541
H2       H     0.050432379254272   -0.120224751718928    0.121206751559399
H3       H     0.362496323611509   -0.096599788551949    0.084044685367824
H4       H     0.177898670779022    0.122176077467032    0.404667208816169
H5       H    -0.049290232773876    0.067225864400389    0.247779673739797
H6       H     0.198426619669770   -0.089078074051318    0.416089385260547
H7       H     0.493969079287332   -0.037982206421420    0.348398874830516
H8       H     0.703326424237392    0.294637091458414    0.291940117169576
H9       H     0.949567484310538    0.379775248281072    0.378793217940716
H10      H     0.637503539953300    0.403400211448051    0.415955284132293
H11      H     0.822101192785787    0.622176077467032    0.095332760683947
H12      H     1.049290096338686    0.567225864400390    0.252220295760321
H13      H     0.801573243895040    0.410921925948682    0.083910584239569
H14      H     0.506030784277478    0.462017793578580    0.151601094669600
H15      H     0.703326424237392    1.205362908541586    0.791940117169576
H16      H     0.949567484310538    1.120224751718929    0.878793217940717
H17      H     0.637503539953300    1.096599788551950    0.915955284132293
H18      H     0.822101192785787    0.877823922532968    0.595332760683947
H19      H     1.049290096338686    0.932774135599610    0.752220295760321
H20      H     0.801573243895040    1.089078074051319    0.583910584239570
H21      H     0.506030784277478    1.037982206421418    0.651601094669600
H22      H     0.296673439327416    0.705362908541586    0.708059852330540
H23      H     0.050432379254272    0.620224751718928    0.621206751559400
H24      H     0.362496323611509    0.596599788551948    0.584044685367824
H25      H     0.177898670779022    0.377823922532968    0.904667208816170
H26      H    -0.049290232773876    0.432774135599611    0.747779673739796
H27      H     0.198426619669770    0.589078074051318    0.916089385260546
H28      H     0.493969079287332    0.537982206421420    0.848398874830516
C1       C     0.158004092138426    0.072978891924525    0.290405357863508
C2       C     0.283867508071877   -0.044675951608975    0.317008187844998
C3       C     0.841995771426384    0.572978891924525    0.209594611636608
C4       C     0.716132355492933    0.455324048391025    0.182991781655119
C5       C     0.841995771426384    0.927021108075475    0.709594611636608
C6       C     0.716132355492933    1.044675951608975    0.682991781655119
C7       C     0.158004092138426    0.427021108075475    0.790405357863508
C8       C     0.283867508071877    0.544675951608975    0.817008187844998
N1       N     0.243572767139409   -0.121513587200539    0.171486232154340
N2       N     0.756427096425401    0.378486412799462    0.328513737345776
N3       N     0.756427096425401    1.121513587200538    0.828513737345775
N4       N     0.243572767139409    0.621513587200538    0.671486232154342
O1       O     0.583295967224454    0.168124365746501    0.204058895205740
O2       O     0.170156536611760    0.271402771692074    0.138245370287595
O3       O     0.269430718613282    0.096167329500919   -0.011315987857168
O4       O     0.416703896340357    0.668124365746501    0.295941074294377
O5       O     0.829843326953051    0.771402771692072    0.361754599212523
O6       O     0.730569144951528    0.596167329500919    0.511315957357283
O7       O     0.416703896340357    0.831875634253499    0.795941074294377
O8       O     0.829843326953051    0.728597228307928    0.861754599212522
O9       O     0.730569144951528    0.903832670499081    1.011315957357284
O10      O     0.583295967224454    0.331875634253499    0.704058895205740
O11      O     0.170156536611760    0.228597228307926    0.638245370287595
O12      O     0.269430718613282    0.403832670499081    0.488684012142833
S1       S     0.304390238007586    0.160488551593545    0.144697073049284
S2       S     0.695609625557224    0.660488551593545    0.355302896450832
S3       S     0.695609625557224    0.839511448406455    0.855302896450832
S4       S     0.304390238007586    0.339511448406455    0.644697073049284
