data_TAURIN03.b3lyp.6-311G**.dma4.-281.1582.1.7883
_audit_creation_method 'generated by cspy2.0'
_cell_length_a 5.2703
_cell_length_b 11.4696
_cell_length_c 7.7008
_cell_angle_alpha 90.0
_cell_angle_beta 93.0713
_cell_angle_gamma 90.0
loop_
_symmetry_equiv_pos_site_id
_symmetry_equiv_pos_as_xyz
1 +x,+y,+z
loop_
_atom_site_label
_atom_site_type_symbol
_atom_site_fract_x
_atom_site_fract_y
_atom_site_fract_z
_atom_site_occupancy
S1 S       0.304731420000       0.151458030000       0.151380160000       1.000000000000
S2 S       0.683512670000       0.836406420000       0.857757970000       1.000000000000
S3 S       0.653727300000       0.651458030000       0.337556650000       1.000000000000
S4 S       0.274946030000       0.336406410000       0.631178840000       1.000000000000
O1 O       0.576515220000       0.154225850000       0.205900220000       1.000000000000
O2 O       0.187253300000       0.265568140000       0.161742700000       1.000000000000
O3 O       0.262635310000       0.095494940000      -0.016999110000       1.000000000000
O4 O       0.404921580000       0.833802740000       0.832138270000       1.000000000000
O5 O       0.796166430000       0.722473340000       0.833195780000       1.000000000000
O6 O       0.762824950000       0.891202790000       1.021944310000       1.000000000000
O7 O       0.381943520000       0.654225840000       0.283036580000       1.000000000000
O8 O       0.771205450000       0.765568140000       0.327194100000       1.000000000000
O9 O       0.695823400000       0.595494940000       0.505935910000       1.000000000000
O10 O       0.553537120000       0.333802740000       0.656798530000       1.000000000000
O11 O       0.162292250000       0.222473340000       0.655741010000       1.000000000000
O12 O       0.195633760000       0.391202780000       0.466992490000       1.000000000000
C1 C       0.159433000000       0.061191150000       0.306339790000       1.000000000000
C2 C       0.269443040000      -0.062015260000       0.311347850000       1.000000000000
C3 C       0.790963900000       0.927890610000       0.689451780000       1.000000000000
C4 C       0.682164880000       1.051034980000       0.698056060000       1.000000000000
C5 C       0.799025740000       0.561191140000       0.182597020000       1.000000000000
C6 C       0.689015680000       0.437984740000       0.177588940000       1.000000000000
C7 C       0.167494800000       0.427890600000       0.799485040000       1.000000000000
C8 C       0.276293840000       0.551034980000       0.790880750000       1.000000000000
N1 N       0.201473160000      -0.130410970000       0.153441840000       1.000000000000
N2 N       0.784473640000       1.118359120000       0.849270290000       1.000000000000
N3 N       0.756985540000       0.369589030000       0.335494960000       1.000000000000
N4 N       0.173985090000       0.618359120000       0.639666520000       1.000000000000
H1 H       0.261905350000      -0.214749490000       0.172291770000       1.000000000000
H2 H       0.013969240000      -0.130686470000       0.125690650000       1.000000000000
H3 H       0.291432290000      -0.096966200000       0.048537700000       1.000000000000
H4 H       0.187334180000       0.103742630000       0.428364050000       1.000000000000
H5 H      -0.043573580000       0.061346860000       0.267410300000       1.000000000000
H6 H       0.194726520000      -0.107908820000       0.420828280000       1.000000000000
H7 H       0.477959360000      -0.059467600000       0.326093130000       1.000000000000
H8 H       0.721087220000       1.202777180000       0.838223550000       1.000000000000
H9 H       0.974445690000       1.118591650000       0.857094100000       1.000000000000
H10 H       0.719991470000       1.084095620000       0.962761230000       1.000000000000
H11 H       0.736037560000       0.886186900000       0.570158800000       1.000000000000
H12 H       0.998648060000       0.927625170000       0.706765750000       1.000000000000
H13 H       0.730691420000       1.097766580000       0.581815960000       1.000000000000
H14 H       0.474540480000       1.048420560000       0.705375150000       1.000000000000
H15 H       0.696553330000       0.285250520000       0.316645030000       1.000000000000
H16 H       0.944489470000       0.369313530000       0.363246160000       1.000000000000
H17 H       0.667026410000       0.403033790000       0.440399110000       1.000000000000
H18 H       0.771124570000       0.603742620000       0.060572750000       1.000000000000
H19 H       1.002032310000       0.561346860000       0.221526520000       1.000000000000
H20 H       0.763732210000       0.392091180000       0.068108540000       1.000000000000
H21 H       0.480499370000       0.440532400000       0.162843670000       1.000000000000
H22 H       0.237371530000       0.702777180000       0.650713250000       1.000000000000
H23 H      -0.015986960000       0.618591650000       0.631842700000       1.000000000000
H24 H       0.238467260000       0.584095610000       0.526175600000       1.000000000000
H25 H       0.222421130000       0.386186910000       0.918778000000       1.000000000000
H26 H      -0.040189350000       0.427625160000       0.782171060000       1.000000000000
H27 H       0.227767300000       0.597766570000       0.907120850000       1.000000000000
H28 H       0.483918230000       0.548420560000       0.783561660000       1.000000000000
#END