data_cif

_audit_creation_method             'generated by GULP'

_symmetry_space_group_name_H-M     'P 1 21/C 1      '
_symmetry_Int_Tables_number        14
_symmetry_cell_setting             Monoclinic  

_cell_length_a                       5.389315
_cell_length_b                      11.713990
_cell_length_c                       6.566758
_cell_angle_alpha                   90.000000
_cell_angle_beta                    92.414889
_cell_angle_gamma                   90.000000

loop_
_atom_site_label
_atom_site_fract_x
_atom_site_fract_y
_atom_site_fract_z
_atom_site_occupancy
  S3          0.29805      0.13754      0.14589  1.0000
  O5          0.55571      0.15617      0.21097  1.0000
  O5          0.14164      0.23712      0.15810  1.0000
  O5          0.26171      0.07443      0.95788  1.0000
  C7          0.18106      0.04597      0.33017  1.0000
  C7          0.30928      0.93070      0.33265  1.0000
  N6          0.21798      0.85455      0.16342  1.0000
  H4          0.29316      0.77365      0.18057  1.0000
  H4          0.02680      0.84247      0.16821  1.0000
  H4          0.25861      0.88533      0.02050  1.0000
  H1          0.21211      0.08956      0.47558  1.0000
  H1          0.98208      0.03807      0.29507  1.0000
  H2          0.27246      0.88714      0.47530  1.0000
  H2          0.50980      0.94146      0.32269  1.0000
