data_image0
_chemical_formula_structural       S4O12C8N4H28
_chemical_formula_sum              "S4 O12 C8 N4 H28"
_cell_length_a       5.127079889092235
_cell_length_b       11.342178299610097
_cell_length_c       8.73969773468559
_cell_angle_alpha    89.98253469570007
_cell_angle_beta     95.3387153537627
_cell_angle_gamma    89.98180121916894

_space_group_name_H-M_alt    "P 1"
_space_group_IT_number       1

loop_
  _space_group_symop_operation_xyz
  'x, y, z'

loop_
  _atom_site_type_symbol
  _atom_site_label
  _atom_site_symmetry_multiplicity
  _atom_site_fract_x
  _atom_site_fract_y
  _atom_site_fract_z
  _atom_site_occupancy
  S   S1        1.0  0.3000923518131663  0.17311527696980644  0.12817418235892605  1.0000
  S   S2        1.0  0.6995419478226664  0.6732695237477365  0.37194994644080903  1.0000
  S   S3        1.0  0.6994959726691752  0.8267365124145117  0.8721561573220755  1.0000
  S   S4        1.0  0.3004151912576344  0.3267454746279349  0.6281277062837681  1.0000
  O   O1        1.0  0.5808739722806194  0.1813348044146815  0.18445444703681055  1.0000
  O   O2        1.0  0.41898191930697715  0.6815992699764611  0.31507437791228027  1.0000
  O   O3        1.0  0.41894907866739883  0.8184186036545307  0.8153042621099598  1.0000
  O   O4        1.0  0.581445041470996  0.31858038328627397  0.6839610094603961  1.0000
  O   O5        1.0  0.1656440837240811  0.2870509454764097  0.11804620938617462  1.0000
  O   O6        1.0  0.83409087968922  0.787123575797399  0.3823389123672524  1.0000
  O   O7        1.0  0.8343969217765052  0.7129222810612466  0.882508905957811  1.0000
  O   O8        1.0  0.1661130305800017  0.2128297938581511  0.618625957634134  1.0000
  O   O9        1.0  0.26815109885387267  0.10515627241752531  0.9818955716125086  1.0000
  O   O10       1.0  0.7303819727824502  0.6053051459283901  0.5182480533920829  1.0000
  O   O11       1.0  0.7303516903675926  0.894680461533007  0.018402413712196346  1.0000
  O   O12       1.0  0.26776173451501495  0.3945321894069027  0.48168678732951425  1.0000
  C   C1        1.0  0.1485774811902663  0.08736398496615143  0.26633962004117145  1.0000
  C   C2        1.0  0.8515223301494271  0.5875770567089373  0.23407401604750086  1.0000
  C   C3        1.0  0.8514174023288518  0.9123737014817517  0.734134774471392  1.0000
  C   C4        1.0  0.14906676167410537  0.4126666253018918  0.7661697307812211  1.0000
  C   C5        1.0  0.27466608525869224  0.9688086812001075  0.30178603845550206  1.0000
  C   C6        1.0  0.7258884169306027  0.4690347419552307  0.19824628299071656  1.0000
  C   C7        1.0  0.7261180128638782  0.03100519221369133  0.6981337808822026  1.0000
  C   C8        1.0  0.27493849429580547  0.5312265587317063  0.8016357525557117  1.0000
  N   N1        1.0  0.24868891552894212  0.885087061065562  0.17103125776025885  1.0000
  N   N2        1.0  0.7503487386408461  0.3850999537308101  0.3288613382094539  1.0000
  N   N3        1.0  0.7506715847128325  0.11482101099622767  0.8287737596766482  1.0000
  N   N4        1.0  0.2488131456684287  0.6150517899716076  0.6709248027078091  1.0000
  H   H1        1.0  0.3037954323694964  0.8007004047414062  0.21465803466180622  1.0000
  H   H2        1.0  0.695789027795384  0.3007901798003401  0.2849168278128336  1.0000
  H   H3        1.0  0.696208473731726  0.1992097577281929  0.784871676802544  1.0000
  H   H4        1.0  0.30380436990265286  0.6994156489050586  0.7145884796230094  1.0000
  H   H5        1.0  0.05585139197358417  0.8828604298223175  0.11847941195407034  1.0000
  H   H6        1.0  0.9428242078086057  0.3827119173105174  0.3820971543605574  1.0000
  H   H7        1.0  0.9431532255720788  0.117068946833783  0.8819899019678922  1.0000
  H   H8        1.0  0.05595753978273709  0.6172910333851435  0.6183427340976184  1.0000
  H   H9        1.0  0.3772945906134535  0.9063471328101662  0.0896419534555284  1.0000
  H   H10       1.0  0.6208970174385052  0.4061497358555686  0.40988152651580506  1.0000
  H   H11       1.0  0.6212517911724179  0.09374828693824364  0.909800621446124  1.0000
  H   H12       1.0  0.37753466449037426  0.5939036674588978  0.589538803820705  1.0000
  H   H13       1.0  0.16242456768381813  0.14081187976185688  0.372538666723194  1.0000
  H   H14       1.0  0.8372385332847235  0.641161394398779  0.1279142496443486  1.0000
  H   H15       1.0  0.8371732955471872  0.8588932223572225  0.6279725466619139  1.0000
  H   H16       1.0  0.1630146479885465  0.3593437975131147  0.8725105105236514  1.0000
  H   H17       1.0  0.9400727963666464  0.08027865313660361  0.22285414847474316  1.0000
  H   H18       1.0  0.06014858244233832  0.5806485135769732  0.2774394282699381  1.0000
  H   H19       1.0  0.060052033634664784  0.9191262996784977  0.7775247637490591  1.0000
  H   H20       1.0  0.9405023003488641  0.41972194323395384  0.722750159237929  1.0000
  H   H21       1.0  0.1779045572406866  0.9268128347443115  0.39498199169601733  1.0000
  H   H22       1.0  0.8243640677234273  0.4271941208973981  0.10561657953582768  1.0000
  H   H23       1.0  0.8247611762039819  0.07285067174978081  0.6055643624510887  1.0000
  H   H24       1.0  0.17811422395857093  0.5731463064047829  0.894848616791329  1.0000
  H   H25       1.0  0.4850594262737395  0.9771594047670147  0.33859896358352715  1.0000
  H   H26       1.0  0.5159071633859981  0.47743051753488913  0.16032465923917524  1.0000
  H   H27       1.0  0.5161128108782272  0.02281075428069536  0.6602338449478005  1.0000
  H   H28       1.0  0.4853654884672892  0.5228882427896429  0.8384418366590689  1.0000
