data_C2H7NO3S
_audit_creation_method 'chmpy python library version 1.0a1'
_cell_length_a 5.243118
_cell_length_b 11.804566
_cell_length_c 7.089177
_cell_angle_alpha 90.0
_cell_angle_beta 92.817743
_cell_angle_gamma 90.0
loop_
_symmetry_equiv_pos_site_id
_symmetry_equiv_pos_as_xyz
                   1 -x,-y,-z
                   2 +x,+y,+z
                   3 -x,1/2+y,1/2-z
                   4 +x,1/2-y,1/2+z
loop_
_atom_site_label
_atom_site_type_symbol
_atom_site_fract_x
_atom_site_fract_y
_atom_site_fract_z
_atom_site_occupancy
S S       0.337208000000       0.141634000000       0.154639000000       1.000000000000
O O       0.608005000000       0.137620000000       0.244580000000       1.000000000000
O O       0.204837000000       0.256964000000       0.150539000000       1.000000000000
O O       0.306588000000       0.078902000000       0.966502000000       1.000000000000
C C       0.165600000000       0.053491000000       0.319705000000       1.000000000000
C C       0.288777000000       0.935946000000       0.331246000000       1.000000000000
N N       0.204842000000       0.864491000000       0.165332000000       1.000000000000
H H       0.271252000000       0.780874000000       0.181955000000       1.000000000000
H H       0.003537000000       0.860646000000       0.150328000000       1.000000000000
H H       0.275095000000       0.897036000000       0.037647000000       1.000000000000
H H       0.171407000000       0.098382000000       0.456945000000       1.000000000000
H H       0.963381000000       0.047605000000       0.267557000000       1.000000000000
H H       0.246006000000       0.890185000000       0.463494000000       1.000000000000
H H       0.500810000000       0.943911000000       0.334074000000       1.000000000000
#END