data_image0
_chemical_formula_structural       S4O12C8N4H28
_chemical_formula_sum              "S4 O12 C8 N4 H28"
_cell_length_a       5.279
_cell_length_b       11.645
_cell_length_c       7.931000000000001
_cell_angle_alpha    90.0
_cell_angle_beta     94.0
_cell_angle_gamma    90.0

_space_group_name_H-M_alt    "P 1"
_space_group_IT_number       1

loop_
  _space_group_symop_operation_xyz
  'x, y, z'

loop_
  _atom_site_type_symbol
  _atom_site_label
  _atom_site_symmetry_multiplicity
  _atom_site_fract_x
  _atom_site_fract_y
  _atom_site_fract_z
  _atom_site_occupancy
  S   S1        1.0  0.3063269896577305  0.1545308339736353  0.15200293440114196  1.0000
  S   S2        1.0  0.6936733103377943  0.6545308439158593  0.3479972060586247  1.0000
  S   S3        1.0  0.69411590946994  0.8454395684941453  0.8477701632758292  1.0000
  S   S4        1.0  0.3058841923944584  0.34543958266533403  0.65222991266835  1.0000
  O   O1        1.0  0.5780208683827347  0.16173242495998635  0.21236800240557815  1.0000
  O   O2        1.0  0.42197896877365776  0.6617325116457267  0.287631962034065  1.0000
  O   O3        1.0  0.422690932050745  0.8380206318726366  0.7868566686731329  1.0000
  O   O4        1.0  0.5773089724567114  0.3380206054001341  0.7131432977057597  1.0000
  O   O5        1.0  0.17537659278707943  0.26534476354764275  0.14904904629054608  1.0000
  O   O6        1.0  0.8246232878128998  0.7653447416471987  0.35095091042737697  1.0000
  O   O7        1.0  0.8258883723054526  0.7348228093799322  0.8512296568613177  1.0000
  O   O8        1.0  0.1741116500700859  0.23482274768018152  0.6487703800532204  1.0000
  O   O9        1.0  0.274775256561194  0.09250786946022396  0.9890026683938555  1.0000
  O   O10       1.0  0.7252247409242109  0.5925079136185543  0.5109972361662134  1.0000
  O   O11       1.0  0.724520755914276  0.9074098458286685  0.010871134305717718  1.0000
  O   O12       1.0  0.2754792191974457  0.40740978336413114  0.4891288220897037  1.0000
  C   C1        1.0  0.1605575687158058  0.06541552034814135  0.3032606930805601  1.0000
  C   C2        1.0  0.8394424076571813  0.5654155674819525  0.19673929450799152  1.0000
  C   C3        1.0  0.8404934988199149  0.9346827326824433  0.6969377210929414  1.0000
  C   C4        1.0  0.15950651097616741  0.4346827179870943  0.8030623396290878  1.0000
  C   C5        1.0  0.2811417462904539  0.9469764334189822  0.32146941111045035  1.0000
  C   C6        1.0  0.7188582605855987  0.44697632174877017  0.17853054371278324  1.0000
  C   C7        1.0  0.7192837877734686  0.05299864191532107  0.6782912781337348  1.0000
  C   C8        1.0  0.28071623043936844  0.5529987531481876  0.821708754110603  1.0000
  N   N1        1.0  0.22807812238692993  0.8737018282426586  0.17003739123115347  1.0000
  N   N2        1.0  0.771921934123115  0.37370192871474756  0.3299626751620798  1.0000
  N   N3        1.0  0.7718579681105877  0.12633952996441203  0.8297397816048888  1.0000
  N   N4        1.0  0.22814208297804  0.6263395769516946  0.6702601111852828  1.0000
  H   H1        1.0  0.29152990213936036  0.7906970315624493  0.19866281169544944  1.0000
  H   H2        1.0  0.7084700134090287  0.2906969060535082  0.30133711305645855  1.0000
  H   H3        1.0  0.7073781865652332  0.20919120987911838  0.8012120909751442  1.0000
  H   H4        1.0  0.29262187198842604  0.709191301529122  0.6987879814572027  1.0000
  H   H5        1.0  0.03544395320839013  0.8719989533790065  0.13301081577452456  1.0000
  H   H6        1.0  0.9645560901597584  0.3719989335936306  0.36698912943716344  1.0000
  H   H7        1.0  0.9645800931548768  0.12859508053376542  0.8664041956519515  1.0000
  H   H8        1.0  0.03541974066659072  0.6285951017740887  0.6335958625142621  1.0000
  H   H9        1.0  0.32461760599630224  0.9039988150874971  0.07056150372637918  1.0000
  H   H10       1.0  0.6753824612280245  0.4039988130148528  0.4294384337898921  1.0000
  H   H11       1.0  0.6762656443220961  0.09556731603773708  0.9293416947622484  1.0000
  H   H12       1.0  0.323734459873676  0.5955673205224558  0.5706583204176268  1.0000
  H   H13       1.0  0.1827921012328887  0.11250599831804285  0.4235624906765525  1.0000
  H   H14       1.0  0.8172078854640754  0.6125060188151402  0.07643745208136674  1.0000
  H   H15       1.0  0.8192987129360362  0.8875344628136782  0.576656499382682  1.0000
  H   H16       1.0  0.18070129027677537  0.38753445257579044  0.9233435278600376  1.0000
  H   H17       1.0  0.9574722261633544  0.061320324700131205  0.2623971435306191  1.0000
  H   H18       1.0  0.04252773875699708  0.5613203258824353  0.2376028989853197  1.0000
  H   H19       1.0  0.04329590014707502  0.9390770725141946  0.7385118761032281  1.0000
  H   H20       1.0  0.95670409834159  0.4390770005519444  0.7614881276576707  1.0000
  H   H21       1.0  0.206158515309321  0.9020744422324711  0.4288020910611232  1.0000
  H   H22       1.0  0.7938414111339354  0.402074453785392  0.07119788146357266  1.0000
  H   H23       1.0  0.7941897436108168  0.09785171296132635  0.5708992703791848  1.0000
  H   H24       1.0  0.2058102958074818  0.5978517327237108  0.9291008200027281  1.0000
  H   H25       1.0  0.4880468367129935  0.9529480006408433  0.34406865554538557  1.0000
  H   H26       1.0  0.5119530532073564  0.4529479819102218  0.1559313469074295  1.0000
  H   H27       1.0  0.512431673344146  0.04671610800693005  0.6555634854189281  1.0000
  H   H28       1.0  0.48756840621196373  0.5467161239654703  0.844436555641956  1.0000
